
---------- Begin Simulation Statistics ----------
final_tick                                83205798500                       # Number of ticks from beginning of simulation (restored from checkpoints and never reset)
host_inst_rate                                 128560                       # Simulator instruction rate (inst/s)
host_mem_usage                                 725196                       # Number of bytes of host memory used
host_op_rate                                   128817                       # Simulator op (including micro ops) rate (op/s)
host_seconds                                   777.85                       # Real time elapsed on the host
host_tick_rate                              106969192                       # Simulator tick rate (ticks/s)
sim_freq                                 1000000000000                       # Frequency of simulated ticks
sim_insts                                   100000001                       # Number of instructions simulated
sim_ops                                     100200384                       # Number of ops (including micro ops) simulated
sim_seconds                                  0.083206                       # Number of seconds simulated
sim_ticks                                 83205798500                       # Number of ticks simulated
system.cpu.committedInsts                   100000001                       # Number of instructions committed
system.cpu.committedOps                     100200384                       # Number of ops (including micro ops) committed
system.cpu.cpi                               1.664116                       # CPI: cycles per instruction
system.cpu.discardedOps                        213150                       # Number of ops (including micro ops) which were discarded before commit
system.cpu.idleCycles                        34042989                       # Total number of cycles that the object has spent stopped
system.cpu.ipc                               0.600920                       # IPC: instructions per cycle
system.cpu.numCycles                        166411597                       # number of cpu cycles simulated
system.cpu.numFetchSuspends                         0                       # Number of times Execute suspended instruction fetching
system.cpu.numWorkItemsCompleted                    0                       # number of work items this cpu completed
system.cpu.numWorkItemsStarted                      0                       # number of work items this cpu started
system.cpu.op_class_0::No_OpClass                   0      0.00%      0.00% # Class of committed instruction
system.cpu.op_class_0::IntAlu                47349883     47.26%     47.26% # Class of committed instruction
system.cpu.op_class_0::IntMult                  20682      0.02%     47.28% # Class of committed instruction
system.cpu.op_class_0::IntDiv                       0      0.00%     47.28% # Class of committed instruction
system.cpu.op_class_0::FloatAdd                     0      0.00%     47.28% # Class of committed instruction
system.cpu.op_class_0::FloatCmp                     0      0.00%     47.28% # Class of committed instruction
system.cpu.op_class_0::FloatCvt                     0      0.00%     47.28% # Class of committed instruction
system.cpu.op_class_0::FloatMult                    0      0.00%     47.28% # Class of committed instruction
system.cpu.op_class_0::FloatMultAcc                 0      0.00%     47.28% # Class of committed instruction
system.cpu.op_class_0::FloatDiv                     0      0.00%     47.28% # Class of committed instruction
system.cpu.op_class_0::FloatMisc                    0      0.00%     47.28% # Class of committed instruction
system.cpu.op_class_0::FloatSqrt                    0      0.00%     47.28% # Class of committed instruction
system.cpu.op_class_0::SimdAdd                      0      0.00%     47.28% # Class of committed instruction
system.cpu.op_class_0::SimdAddAcc                   0      0.00%     47.28% # Class of committed instruction
system.cpu.op_class_0::SimdAlu                      0      0.00%     47.28% # Class of committed instruction
system.cpu.op_class_0::SimdCmp                      0      0.00%     47.28% # Class of committed instruction
system.cpu.op_class_0::SimdCvt                      0      0.00%     47.28% # Class of committed instruction
system.cpu.op_class_0::SimdMisc                     0      0.00%     47.28% # Class of committed instruction
system.cpu.op_class_0::SimdMult                     0      0.00%     47.28% # Class of committed instruction
system.cpu.op_class_0::SimdMultAcc                  0      0.00%     47.28% # Class of committed instruction
system.cpu.op_class_0::SimdShift                    0      0.00%     47.28% # Class of committed instruction
system.cpu.op_class_0::SimdShiftAcc                 0      0.00%     47.28% # Class of committed instruction
system.cpu.op_class_0::SimdDiv                      0      0.00%     47.28% # Class of committed instruction
system.cpu.op_class_0::SimdSqrt                     0      0.00%     47.28% # Class of committed instruction
system.cpu.op_class_0::SimdFloatAdd                 0      0.00%     47.28% # Class of committed instruction
system.cpu.op_class_0::SimdFloatAlu                 0      0.00%     47.28% # Class of committed instruction
system.cpu.op_class_0::SimdFloatCmp                 0      0.00%     47.28% # Class of committed instruction
system.cpu.op_class_0::SimdFloatCvt                 0      0.00%     47.28% # Class of committed instruction
system.cpu.op_class_0::SimdFloatDiv                 0      0.00%     47.28% # Class of committed instruction
system.cpu.op_class_0::SimdFloatMisc                1      0.00%     47.28% # Class of committed instruction
system.cpu.op_class_0::SimdFloatMult                0      0.00%     47.28% # Class of committed instruction
system.cpu.op_class_0::SimdFloatMultAcc             0      0.00%     47.28% # Class of committed instruction
system.cpu.op_class_0::SimdFloatSqrt                0      0.00%     47.28% # Class of committed instruction
system.cpu.op_class_0::SimdReduceAdd                0      0.00%     47.28% # Class of committed instruction
system.cpu.op_class_0::SimdReduceAlu                0      0.00%     47.28% # Class of committed instruction
system.cpu.op_class_0::SimdReduceCmp                0      0.00%     47.28% # Class of committed instruction
system.cpu.op_class_0::SimdFloatReduceAdd            0      0.00%     47.28% # Class of committed instruction
system.cpu.op_class_0::SimdFloatReduceCmp            0      0.00%     47.28% # Class of committed instruction
system.cpu.op_class_0::SimdAes                      0      0.00%     47.28% # Class of committed instruction
system.cpu.op_class_0::SimdAesMix                   0      0.00%     47.28% # Class of committed instruction
system.cpu.op_class_0::SimdSha1Hash                 0      0.00%     47.28% # Class of committed instruction
system.cpu.op_class_0::SimdSha1Hash2                0      0.00%     47.28% # Class of committed instruction
system.cpu.op_class_0::SimdSha256Hash               0      0.00%     47.28% # Class of committed instruction
system.cpu.op_class_0::SimdSha256Hash2              0      0.00%     47.28% # Class of committed instruction
system.cpu.op_class_0::SimdShaSigma2                0      0.00%     47.28% # Class of committed instruction
system.cpu.op_class_0::SimdShaSigma3                0      0.00%     47.28% # Class of committed instruction
system.cpu.op_class_0::SimdPredAlu                  0      0.00%     47.28% # Class of committed instruction
system.cpu.op_class_0::MemRead               41786327     41.70%     88.98% # Class of committed instruction
system.cpu.op_class_0::MemWrite              11043491     11.02%    100.00% # Class of committed instruction
system.cpu.op_class_0::FloatMemRead                 0      0.00%    100.00% # Class of committed instruction
system.cpu.op_class_0::FloatMemWrite                0      0.00%    100.00% # Class of committed instruction
system.cpu.op_class_0::IprAccess                    0      0.00%    100.00% # Class of committed instruction
system.cpu.op_class_0::InstPrefetch                 0      0.00%    100.00% # Class of committed instruction
system.cpu.op_class_0::total                100200384                       # Class of committed instruction
system.cpu.tickCycles                       132368608                       # Number of cycles that the object actually ticked
system.cpu.workload.numSyscalls                    85                       # Number of system calls
system.membus.snoop_filter.hit_multi_requests            0                       # Number of requests hitting in the snoop filter with multiple (>1) holders of the requested data.
system.membus.snoop_filter.hit_multi_snoops            0                       # Number of snoops hitting in the snoop filter with multiple (>1) holders of the requested data.
system.membus.snoop_filter.hit_single_requests       169221                       # Number of requests hitting in the snoop filter with a single holder of the requested data.
system.membus.snoop_filter.hit_single_snoops            0                       # Number of snoops hitting in the snoop filter with a single holder of the requested data.
system.membus.snoop_filter.tot_requests        371614                       # Total number of requests made to the snoop filter.
system.membus.snoop_filter.tot_snoops               0                       # Total number of snoops made to the snoop filter.
system.tol2bus.snoop_filter.hit_multi_requests           31                       # Number of requests hitting in the snoop filter with multiple (>1) holders of the requested data.
system.tol2bus.snoop_filter.hit_multi_snoops            0                       # Number of snoops hitting in the snoop filter with multiple (>1) holders of the requested data.
system.tol2bus.snoop_filter.hit_single_requests       687383                       # Number of requests hitting in the snoop filter with a single holder of the requested data.
system.tol2bus.snoop_filter.hit_single_snoops          547                       # Number of snoops hitting in the snoop filter with a single holder of the requested data.
system.tol2bus.snoop_filter.tot_requests      1376294                       # Total number of requests made to the snoop filter.
system.tol2bus.snoop_filter.tot_snoops            547                       # Total number of snoops made to the snoop filter.
system.membus.trans_dist::ReadResp              65836                       # Transaction distribution
system.membus.trans_dist::WritebackDirty       111690                       # Transaction distribution
system.membus.trans_dist::CleanEvict            57526                       # Transaction distribution
system.membus.trans_dist::ReadExReq            136562                       # Transaction distribution
system.membus.trans_dist::ReadExResp           136562                       # Transaction distribution
system.membus.trans_dist::ReadSharedReq         65836                       # Transaction distribution
system.membus.pkt_count_system.l2.mem_side_port::system.mem_ctrls.port       574012                       # Packet count per connected requestor and responder (bytes)
system.membus.pkt_count::total                 574012                       # Packet count per connected requestor and responder (bytes)
system.membus.pkt_size_system.l2.mem_side_port::system.mem_ctrls.port     20101632                       # Cumulative packet size per connected requestor and responder (bytes)
system.membus.pkt_size::total                20101632                       # Cumulative packet size per connected requestor and responder (bytes)
system.membus.snoops                                0                       # Total snoops (count)
system.membus.snoopTraffic                          0                       # Total snoop traffic (bytes)
system.membus.snoop_fanout::samples            202398                       # Request fanout histogram
system.membus.snoop_fanout::mean                    0                       # Request fanout histogram
system.membus.snoop_fanout::stdev                   0                       # Request fanout histogram
system.membus.snoop_fanout::underflows              0      0.00%      0.00% # Request fanout histogram
system.membus.snoop_fanout::0                  202398    100.00%    100.00% # Request fanout histogram
system.membus.snoop_fanout::1                       0      0.00%    100.00% # Request fanout histogram
system.membus.snoop_fanout::overflows               0      0.00%    100.00% # Request fanout histogram
system.membus.snoop_fanout::min_value               0                       # Request fanout histogram
system.membus.snoop_fanout::max_value               0                       # Request fanout histogram
system.membus.snoop_fanout::total              202398                       # Request fanout histogram
system.membus.reqLayer0.occupancy           859748000                       # Layer occupancy (ticks)
system.membus.reqLayer0.utilization               1.0                       # Layer utilization (%)
system.membus.respLayer1.occupancy         1090031750                       # Layer occupancy (ticks)
system.membus.respLayer1.utilization              1.3                       # Layer utilization (%)
system.membus.power_state.pwrStateResidencyTicks::UNDEFINED  83205798500                       # Cumulative time (in ticks) in various power states
system.tol2bus.trans_dist::ReadResp            400478                       # Transaction distribution
system.tol2bus.trans_dist::WritebackDirty       722012                       # Transaction distribution
system.tol2bus.trans_dist::WritebackClean          149                       # Transaction distribution
system.tol2bus.trans_dist::CleanEvict          134985                       # Transaction distribution
system.tol2bus.trans_dist::ReadExReq           288433                       # Transaction distribution
system.tol2bus.trans_dist::ReadExResp          288433                       # Transaction distribution
system.tol2bus.trans_dist::ReadCleanReq           653                       # Transaction distribution
system.tol2bus.trans_dist::ReadSharedReq       399825                       # Transaction distribution
system.tol2bus.pkt_count_system.cpu.icache.mem_side_port::system.l2.cpu_side_port         1455                       # Packet count per connected requestor and responder (bytes)
system.tol2bus.pkt_count_system.cpu.dcache.mem_side_port::system.l2.cpu_side_port      2063750                       # Packet count per connected requestor and responder (bytes)
system.tol2bus.pkt_count::total               2065205                       # Packet count per connected requestor and responder (bytes)
system.tol2bus.pkt_size_system.cpu.icache.mem_side_port::system.l2.cpu_side_port        51328                       # Cumulative packet size per connected requestor and responder (bytes)
system.tol2bus.pkt_size_system.cpu.dcache.mem_side_port::system.l2.cpu_side_port     83109120                       # Cumulative packet size per connected requestor and responder (bytes)
system.tol2bus.pkt_size::total               83160448                       # Cumulative packet size per connected requestor and responder (bytes)
system.tol2bus.snoops                          169763                       # Total snoops (count)
system.tol2bus.snoopTraffic                   7148160                       # Total snoop traffic (bytes)
system.tol2bus.snoop_fanout::samples           858674                       # Request fanout histogram
system.tol2bus.snoop_fanout::mean            0.000673                       # Request fanout histogram
system.tol2bus.snoop_fanout::stdev           0.025936                       # Request fanout histogram
system.tol2bus.snoop_fanout::underflows             0      0.00%      0.00% # Request fanout histogram
system.tol2bus.snoop_fanout::0                 858096     99.93%     99.93% # Request fanout histogram
system.tol2bus.snoop_fanout::1                    578      0.07%    100.00% # Request fanout histogram
system.tol2bus.snoop_fanout::2                      0      0.00%    100.00% # Request fanout histogram
system.tol2bus.snoop_fanout::overflows              0      0.00%    100.00% # Request fanout histogram
system.tol2bus.snoop_fanout::min_value              0                       # Request fanout histogram
system.tol2bus.snoop_fanout::max_value              1                       # Request fanout histogram
system.tol2bus.snoop_fanout::total             858674                       # Request fanout histogram
system.tol2bus.reqLayer0.occupancy         1298618000                       # Layer occupancy (ticks)
system.tol2bus.reqLayer0.utilization              1.6                       # Layer utilization (%)
system.tol2bus.respLayer1.occupancy        1032389994                       # Layer occupancy (ticks)
system.tol2bus.respLayer1.utilization             1.2                       # Layer utilization (%)
system.tol2bus.respLayer0.occupancy            979500                       # Layer occupancy (ticks)
system.tol2bus.respLayer0.utilization             0.0                       # Layer utilization (%)
system.tol2bus.power_state.pwrStateResidencyTicks::UNDEFINED  83205798500                       # Cumulative time (in ticks) in various power states
system.voltage_domain.voltage                       1                       # Voltage in Volts
system.clk_domain.clock                          1000                       # Clock period in ticks
system.l2.demand_hits::.cpu.inst                    3                       # number of demand (read+write) hits
system.l2.demand_hits::.cpu.data               486504                       # number of demand (read+write) hits
system.l2.demand_hits::total                   486507                       # number of demand (read+write) hits
system.l2.overall_hits::.cpu.inst                   3                       # number of overall hits
system.l2.overall_hits::.cpu.data              486504                       # number of overall hits
system.l2.overall_hits::total                  486507                       # number of overall hits
system.l2.demand_misses::.cpu.inst                650                       # number of demand (read+write) misses
system.l2.demand_misses::.cpu.data             201754                       # number of demand (read+write) misses
system.l2.demand_misses::total                 202404                       # number of demand (read+write) misses
system.l2.overall_misses::.cpu.inst               650                       # number of overall misses
system.l2.overall_misses::.cpu.data            201754                       # number of overall misses
system.l2.overall_misses::total                202404                       # number of overall misses
system.l2.demand_miss_latency::.cpu.inst     50604500                       # number of demand (read+write) miss cycles
system.l2.demand_miss_latency::.cpu.data  17088337500                       # number of demand (read+write) miss cycles
system.l2.demand_miss_latency::total      17138942000                       # number of demand (read+write) miss cycles
system.l2.overall_miss_latency::.cpu.inst     50604500                       # number of overall miss cycles
system.l2.overall_miss_latency::.cpu.data  17088337500                       # number of overall miss cycles
system.l2.overall_miss_latency::total     17138942000                       # number of overall miss cycles
system.l2.demand_accesses::.cpu.inst              653                       # number of demand (read+write) accesses
system.l2.demand_accesses::.cpu.data           688258                       # number of demand (read+write) accesses
system.l2.demand_accesses::total               688911                       # number of demand (read+write) accesses
system.l2.overall_accesses::.cpu.inst             653                       # number of overall (read+write) accesses
system.l2.overall_accesses::.cpu.data          688258                       # number of overall (read+write) accesses
system.l2.overall_accesses::total              688911                       # number of overall (read+write) accesses
system.l2.demand_miss_rate::.cpu.inst        0.995406                       # miss rate for demand accesses
system.l2.demand_miss_rate::.cpu.data        0.293137                       # miss rate for demand accesses
system.l2.demand_miss_rate::total            0.293803                       # miss rate for demand accesses
system.l2.overall_miss_rate::.cpu.inst       0.995406                       # miss rate for overall accesses
system.l2.overall_miss_rate::.cpu.data       0.293137                       # miss rate for overall accesses
system.l2.overall_miss_rate::total           0.293803                       # miss rate for overall accesses
system.l2.demand_avg_miss_latency::.cpu.inst 77853.076923                       # average overall miss latency
system.l2.demand_avg_miss_latency::.cpu.data 84698.878337                       # average overall miss latency
system.l2.demand_avg_miss_latency::total 84676.893737                       # average overall miss latency
system.l2.overall_avg_miss_latency::.cpu.inst 77853.076923                       # average overall miss latency
system.l2.overall_avg_miss_latency::.cpu.data 84698.878337                       # average overall miss latency
system.l2.overall_avg_miss_latency::total 84676.893737                       # average overall miss latency
system.l2.blocked_cycles::no_mshrs                  0                       # number of cycles access was blocked
system.l2.blocked_cycles::no_targets                0                       # number of cycles access was blocked
system.l2.blocked::no_mshrs                         0                       # number of cycles access was blocked
system.l2.blocked::no_targets                       0                       # number of cycles access was blocked
system.l2.avg_blocked_cycles::no_mshrs            nan                       # average number of cycles each access was blocked
system.l2.avg_blocked_cycles::no_targets          nan                       # average number of cycles each access was blocked
system.l2.writebacks::.writebacks              111690                       # number of writebacks
system.l2.writebacks::total                    111690                       # number of writebacks
system.l2.demand_mshr_hits::.cpu.data               6                       # number of demand (read+write) MSHR hits
system.l2.demand_mshr_hits::total                   6                       # number of demand (read+write) MSHR hits
system.l2.overall_mshr_hits::.cpu.data              6                       # number of overall MSHR hits
system.l2.overall_mshr_hits::total                  6                       # number of overall MSHR hits
system.l2.demand_mshr_misses::.cpu.inst           650                       # number of demand (read+write) MSHR misses
system.l2.demand_mshr_misses::.cpu.data        201748                       # number of demand (read+write) MSHR misses
system.l2.demand_mshr_misses::total            202398                       # number of demand (read+write) MSHR misses
system.l2.overall_mshr_misses::.cpu.inst          650                       # number of overall MSHR misses
system.l2.overall_mshr_misses::.cpu.data       201748                       # number of overall MSHR misses
system.l2.overall_mshr_misses::total           202398                       # number of overall MSHR misses
system.l2.demand_mshr_miss_latency::.cpu.inst     44104500                       # number of demand (read+write) MSHR miss cycles
system.l2.demand_mshr_miss_latency::.cpu.data  15070450000                       # number of demand (read+write) MSHR miss cycles
system.l2.demand_mshr_miss_latency::total  15114554500                       # number of demand (read+write) MSHR miss cycles
system.l2.overall_mshr_miss_latency::.cpu.inst     44104500                       # number of overall MSHR miss cycles
system.l2.overall_mshr_miss_latency::.cpu.data  15070450000                       # number of overall MSHR miss cycles
system.l2.overall_mshr_miss_latency::total  15114554500                       # number of overall MSHR miss cycles
system.l2.demand_mshr_miss_rate::.cpu.inst     0.995406                       # mshr miss rate for demand accesses
system.l2.demand_mshr_miss_rate::.cpu.data     0.293128                       # mshr miss rate for demand accesses
system.l2.demand_mshr_miss_rate::total       0.293794                       # mshr miss rate for demand accesses
system.l2.overall_mshr_miss_rate::.cpu.inst     0.995406                       # mshr miss rate for overall accesses
system.l2.overall_mshr_miss_rate::.cpu.data     0.293128                       # mshr miss rate for overall accesses
system.l2.overall_mshr_miss_rate::total      0.293794                       # mshr miss rate for overall accesses
system.l2.demand_avg_mshr_miss_latency::.cpu.inst 67853.076923                       # average overall mshr miss latency
system.l2.demand_avg_mshr_miss_latency::.cpu.data 74699.377441                       # average overall mshr miss latency
system.l2.demand_avg_mshr_miss_latency::total 74677.390587                       # average overall mshr miss latency
system.l2.overall_avg_mshr_miss_latency::.cpu.inst 67853.076923                       # average overall mshr miss latency
system.l2.overall_avg_mshr_miss_latency::.cpu.data 74699.377441                       # average overall mshr miss latency
system.l2.overall_avg_mshr_miss_latency::total 74677.390587                       # average overall mshr miss latency
system.l2.replacements                         169763                       # number of replacements
system.l2.WritebackDirty_hits::.writebacks       610322                       # number of WritebackDirty hits
system.l2.WritebackDirty_hits::total           610322                       # number of WritebackDirty hits
system.l2.WritebackDirty_accesses::.writebacks       610322                       # number of WritebackDirty accesses(hits+misses)
system.l2.WritebackDirty_accesses::total       610322                       # number of WritebackDirty accesses(hits+misses)
system.l2.WritebackClean_hits::.writebacks          148                       # number of WritebackClean hits
system.l2.WritebackClean_hits::total              148                       # number of WritebackClean hits
system.l2.WritebackClean_accesses::.writebacks          148                       # number of WritebackClean accesses(hits+misses)
system.l2.WritebackClean_accesses::total          148                       # number of WritebackClean accesses(hits+misses)
system.l2.ReadExReq_hits::.cpu.data            151871                       # number of ReadExReq hits
system.l2.ReadExReq_hits::total                151871                       # number of ReadExReq hits
system.l2.ReadExReq_misses::.cpu.data          136562                       # number of ReadExReq misses
system.l2.ReadExReq_misses::total              136562                       # number of ReadExReq misses
system.l2.ReadExReq_miss_latency::.cpu.data  11864027000                       # number of ReadExReq miss cycles
system.l2.ReadExReq_miss_latency::total   11864027000                       # number of ReadExReq miss cycles
system.l2.ReadExReq_accesses::.cpu.data        288433                       # number of ReadExReq accesses(hits+misses)
system.l2.ReadExReq_accesses::total            288433                       # number of ReadExReq accesses(hits+misses)
system.l2.ReadExReq_miss_rate::.cpu.data     0.473462                       # miss rate for ReadExReq accesses
system.l2.ReadExReq_miss_rate::total         0.473462                       # miss rate for ReadExReq accesses
system.l2.ReadExReq_avg_miss_latency::.cpu.data 86876.488335                       # average ReadExReq miss latency
system.l2.ReadExReq_avg_miss_latency::total 86876.488335                       # average ReadExReq miss latency
system.l2.ReadExReq_mshr_misses::.cpu.data       136562                       # number of ReadExReq MSHR misses
system.l2.ReadExReq_mshr_misses::total         136562                       # number of ReadExReq MSHR misses
system.l2.ReadExReq_mshr_miss_latency::.cpu.data  10498407000                       # number of ReadExReq MSHR miss cycles
system.l2.ReadExReq_mshr_miss_latency::total  10498407000                       # number of ReadExReq MSHR miss cycles
system.l2.ReadExReq_mshr_miss_rate::.cpu.data     0.473462                       # mshr miss rate for ReadExReq accesses
system.l2.ReadExReq_mshr_miss_rate::total     0.473462                       # mshr miss rate for ReadExReq accesses
system.l2.ReadExReq_avg_mshr_miss_latency::.cpu.data 76876.488335                       # average ReadExReq mshr miss latency
system.l2.ReadExReq_avg_mshr_miss_latency::total 76876.488335                       # average ReadExReq mshr miss latency
system.l2.ReadCleanReq_hits::.cpu.inst              3                       # number of ReadCleanReq hits
system.l2.ReadCleanReq_hits::total                  3                       # number of ReadCleanReq hits
system.l2.ReadCleanReq_misses::.cpu.inst          650                       # number of ReadCleanReq misses
system.l2.ReadCleanReq_misses::total              650                       # number of ReadCleanReq misses
system.l2.ReadCleanReq_miss_latency::.cpu.inst     50604500                       # number of ReadCleanReq miss cycles
system.l2.ReadCleanReq_miss_latency::total     50604500                       # number of ReadCleanReq miss cycles
system.l2.ReadCleanReq_accesses::.cpu.inst          653                       # number of ReadCleanReq accesses(hits+misses)
system.l2.ReadCleanReq_accesses::total            653                       # number of ReadCleanReq accesses(hits+misses)
system.l2.ReadCleanReq_miss_rate::.cpu.inst     0.995406                       # miss rate for ReadCleanReq accesses
system.l2.ReadCleanReq_miss_rate::total      0.995406                       # miss rate for ReadCleanReq accesses
system.l2.ReadCleanReq_avg_miss_latency::.cpu.inst 77853.076923                       # average ReadCleanReq miss latency
system.l2.ReadCleanReq_avg_miss_latency::total 77853.076923                       # average ReadCleanReq miss latency
system.l2.ReadCleanReq_mshr_misses::.cpu.inst          650                       # number of ReadCleanReq MSHR misses
system.l2.ReadCleanReq_mshr_misses::total          650                       # number of ReadCleanReq MSHR misses
system.l2.ReadCleanReq_mshr_miss_latency::.cpu.inst     44104500                       # number of ReadCleanReq MSHR miss cycles
system.l2.ReadCleanReq_mshr_miss_latency::total     44104500                       # number of ReadCleanReq MSHR miss cycles
system.l2.ReadCleanReq_mshr_miss_rate::.cpu.inst     0.995406                       # mshr miss rate for ReadCleanReq accesses
system.l2.ReadCleanReq_mshr_miss_rate::total     0.995406                       # mshr miss rate for ReadCleanReq accesses
system.l2.ReadCleanReq_avg_mshr_miss_latency::.cpu.inst 67853.076923                       # average ReadCleanReq mshr miss latency
system.l2.ReadCleanReq_avg_mshr_miss_latency::total 67853.076923                       # average ReadCleanReq mshr miss latency
system.l2.ReadSharedReq_hits::.cpu.data        334633                       # number of ReadSharedReq hits
system.l2.ReadSharedReq_hits::total            334633                       # number of ReadSharedReq hits
system.l2.ReadSharedReq_misses::.cpu.data        65192                       # number of ReadSharedReq misses
system.l2.ReadSharedReq_misses::total           65192                       # number of ReadSharedReq misses
system.l2.ReadSharedReq_miss_latency::.cpu.data   5224310500                       # number of ReadSharedReq miss cycles
system.l2.ReadSharedReq_miss_latency::total   5224310500                       # number of ReadSharedReq miss cycles
system.l2.ReadSharedReq_accesses::.cpu.data       399825                       # number of ReadSharedReq accesses(hits+misses)
system.l2.ReadSharedReq_accesses::total        399825                       # number of ReadSharedReq accesses(hits+misses)
system.l2.ReadSharedReq_miss_rate::.cpu.data     0.163051                       # miss rate for ReadSharedReq accesses
system.l2.ReadSharedReq_miss_rate::total     0.163051                       # miss rate for ReadSharedReq accesses
system.l2.ReadSharedReq_avg_miss_latency::.cpu.data 80137.294453                       # average ReadSharedReq miss latency
system.l2.ReadSharedReq_avg_miss_latency::total 80137.294453                       # average ReadSharedReq miss latency
system.l2.ReadSharedReq_mshr_hits::.cpu.data            6                       # number of ReadSharedReq MSHR hits
system.l2.ReadSharedReq_mshr_hits::total            6                       # number of ReadSharedReq MSHR hits
system.l2.ReadSharedReq_mshr_misses::.cpu.data        65186                       # number of ReadSharedReq MSHR misses
system.l2.ReadSharedReq_mshr_misses::total        65186                       # number of ReadSharedReq MSHR misses
system.l2.ReadSharedReq_mshr_miss_latency::.cpu.data   4572043000                       # number of ReadSharedReq MSHR miss cycles
system.l2.ReadSharedReq_mshr_miss_latency::total   4572043000                       # number of ReadSharedReq MSHR miss cycles
system.l2.ReadSharedReq_mshr_miss_rate::.cpu.data     0.163036                       # mshr miss rate for ReadSharedReq accesses
system.l2.ReadSharedReq_mshr_miss_rate::total     0.163036                       # mshr miss rate for ReadSharedReq accesses
system.l2.ReadSharedReq_avg_mshr_miss_latency::.cpu.data 70138.419292                       # average ReadSharedReq mshr miss latency
system.l2.ReadSharedReq_avg_mshr_miss_latency::total 70138.419292                       # average ReadSharedReq mshr miss latency
system.l2.power_state.pwrStateResidencyTicks::UNDEFINED  83205798500                       # Cumulative time (in ticks) in various power states
system.l2.tags.tagsinuse                 31898.220125                       # Cycle average of tags in use
system.l2.tags.total_refs                     1376257                       # Total number of references to valid blocks.
system.l2.tags.sampled_refs                    202531                       # Sample count of references to valid blocks.
system.l2.tags.avg_refs                      6.795291                       # Average number of references to valid blocks.
system.l2.tags.warmup_cycle                     77000                       # Cycle when the warmup percentage was hit.
system.l2.tags.occ_blocks::.writebacks      25.595724                       # Average occupied blocks per requestor
system.l2.tags.occ_blocks::.cpu.inst        79.625318                       # Average occupied blocks per requestor
system.l2.tags.occ_blocks::.cpu.data     31792.999082                       # Average occupied blocks per requestor
system.l2.tags.occ_percent::.writebacks      0.000781                       # Average percentage of cache occupancy
system.l2.tags.occ_percent::.cpu.inst        0.002430                       # Average percentage of cache occupancy
system.l2.tags.occ_percent::.cpu.data        0.970245                       # Average percentage of cache occupancy
system.l2.tags.occ_percent::total            0.973456                       # Average percentage of cache occupancy
system.l2.tags.occ_task_id_blocks::1024         32768                       # Occupied blocks per task id
system.l2.tags.age_task_id_blocks_1024::0            7                       # Occupied blocks per task id
system.l2.tags.age_task_id_blocks_1024::1          124                       # Occupied blocks per task id
system.l2.tags.age_task_id_blocks_1024::2         1132                       # Occupied blocks per task id
system.l2.tags.age_task_id_blocks_1024::3        15677                       # Occupied blocks per task id
system.l2.tags.age_task_id_blocks_1024::4        15828                       # Occupied blocks per task id
system.l2.tags.occ_task_id_percent::1024            1                       # Percentage of cache occupancy per task id
system.l2.tags.tag_accesses                  11212635                       # Number of tag accesses
system.l2.tags.data_accesses                 11212635                       # Number of data accesses
system.l2.tags.power_state.pwrStateResidencyTicks::UNDEFINED  83205798500                       # Cumulative time (in ticks) in various power states
system.cpu_voltage_domain.voltage                   1                       # Voltage in Volts
system.mem_ctrls.avgPriority_.writebacks::samples    111690.00                       # Average QoS priority value for accepted requests
system.mem_ctrls.avgPriority_.cpu.inst::samples       650.00                       # Average QoS priority value for accepted requests
system.mem_ctrls.avgPriority_.cpu.data::samples    201717.00                       # Average QoS priority value for accepted requests
system.mem_ctrls.priorityMinLatency      0.000000018750                       # per QoS priority minimum request to response latency (s)
system.mem_ctrls.priorityMaxLatency      0.003578192500                       # per QoS priority maximum request to response latency (s)
system.mem_ctrls.numReadWriteTurnArounds         6689                       # Number of turnarounds from READ to WRITE
system.mem_ctrls.numWriteReadTurnArounds         6689                       # Number of turnarounds from WRITE to READ
system.mem_ctrls.numStayReadState              527594                       # Number of times bus staying in READ state
system.mem_ctrls.numStayWriteState             105161                       # Number of times bus staying in WRITE state
system.mem_ctrls.readReqs                      202398                       # Number of read requests accepted
system.mem_ctrls.writeReqs                     111690                       # Number of write requests accepted
system.mem_ctrls.readBursts                    202398                       # Number of controller read bursts, including those serviced by the write queue
system.mem_ctrls.writeBursts                   111690                       # Number of controller write bursts, including those merged in the write queue
system.mem_ctrls.servicedByWrQ                     31                       # Number of controller read bursts serviced by the write queue
system.mem_ctrls.mergedWrBursts                     0                       # Number of controller write bursts merged with an existing one
system.mem_ctrls.neitherReadNorWriteReqs            0                       # Number of requests that are neither read nor write
system.mem_ctrls.avgRdQLen                       1.08                       # Average read queue length when enqueuing
system.mem_ctrls.avgWrQLen                      24.55                       # Average write queue length when enqueuing
system.mem_ctrls.numRdRetry                         0                       # Number of times read queue was full causing retry
system.mem_ctrls.numWrRetry                         0                       # Number of times write queue was full causing retry
system.mem_ctrls.readPktSize::0                     0                       # Read request sizes (log2)
system.mem_ctrls.readPktSize::1                     0                       # Read request sizes (log2)
system.mem_ctrls.readPktSize::2                     0                       # Read request sizes (log2)
system.mem_ctrls.readPktSize::3                     0                       # Read request sizes (log2)
system.mem_ctrls.readPktSize::4                     0                       # Read request sizes (log2)
system.mem_ctrls.readPktSize::5                     0                       # Read request sizes (log2)
system.mem_ctrls.readPktSize::6                202398                       # Read request sizes (log2)
system.mem_ctrls.writePktSize::0                    0                       # Write request sizes (log2)
system.mem_ctrls.writePktSize::1                    0                       # Write request sizes (log2)
system.mem_ctrls.writePktSize::2                    0                       # Write request sizes (log2)
system.mem_ctrls.writePktSize::3                    0                       # Write request sizes (log2)
system.mem_ctrls.writePktSize::4                    0                       # Write request sizes (log2)
system.mem_ctrls.writePktSize::5                    0                       # Write request sizes (log2)
system.mem_ctrls.writePktSize::6               111690                       # Write request sizes (log2)
system.mem_ctrls.rdQLenPdf::0                  140751                       # What read queue length does an incoming req see
system.mem_ctrls.rdQLenPdf::1                   59389                       # What read queue length does an incoming req see
system.mem_ctrls.rdQLenPdf::2                    1873                       # What read queue length does an incoming req see
system.mem_ctrls.rdQLenPdf::3                     353                       # What read queue length does an incoming req see
system.mem_ctrls.rdQLenPdf::4                       1                       # What read queue length does an incoming req see
system.mem_ctrls.rdQLenPdf::5                       0                       # What read queue length does an incoming req see
system.mem_ctrls.rdQLenPdf::6                       0                       # What read queue length does an incoming req see
system.mem_ctrls.rdQLenPdf::7                       0                       # What read queue length does an incoming req see
system.mem_ctrls.rdQLenPdf::8                       0                       # What read queue length does an incoming req see
system.mem_ctrls.rdQLenPdf::9                       0                       # What read queue length does an incoming req see
system.mem_ctrls.rdQLenPdf::10                      0                       # What read queue length does an incoming req see
system.mem_ctrls.rdQLenPdf::11                      0                       # What read queue length does an incoming req see
system.mem_ctrls.rdQLenPdf::12                      0                       # What read queue length does an incoming req see
system.mem_ctrls.rdQLenPdf::13                      0                       # What read queue length does an incoming req see
system.mem_ctrls.rdQLenPdf::14                      0                       # What read queue length does an incoming req see
system.mem_ctrls.rdQLenPdf::15                      0                       # What read queue length does an incoming req see
system.mem_ctrls.rdQLenPdf::16                      0                       # What read queue length does an incoming req see
system.mem_ctrls.rdQLenPdf::17                      0                       # What read queue length does an incoming req see
system.mem_ctrls.rdQLenPdf::18                      0                       # What read queue length does an incoming req see
system.mem_ctrls.rdQLenPdf::19                      0                       # What read queue length does an incoming req see
system.mem_ctrls.rdQLenPdf::20                      0                       # What read queue length does an incoming req see
system.mem_ctrls.rdQLenPdf::21                      0                       # What read queue length does an incoming req see
system.mem_ctrls.rdQLenPdf::22                      0                       # What read queue length does an incoming req see
system.mem_ctrls.rdQLenPdf::23                      0                       # What read queue length does an incoming req see
system.mem_ctrls.rdQLenPdf::24                      0                       # What read queue length does an incoming req see
system.mem_ctrls.rdQLenPdf::25                      0                       # What read queue length does an incoming req see
system.mem_ctrls.rdQLenPdf::26                      0                       # What read queue length does an incoming req see
system.mem_ctrls.rdQLenPdf::27                      0                       # What read queue length does an incoming req see
system.mem_ctrls.rdQLenPdf::28                      0                       # What read queue length does an incoming req see
system.mem_ctrls.rdQLenPdf::29                      0                       # What read queue length does an incoming req see
system.mem_ctrls.rdQLenPdf::30                      0                       # What read queue length does an incoming req see
system.mem_ctrls.rdQLenPdf::31                      0                       # What read queue length does an incoming req see
system.mem_ctrls.wrQLenPdf::0                       1                       # What write queue length does an incoming req see
system.mem_ctrls.wrQLenPdf::1                       1                       # What write queue length does an incoming req see
system.mem_ctrls.wrQLenPdf::2                       1                       # What write queue length does an incoming req see
system.mem_ctrls.wrQLenPdf::3                       1                       # What write queue length does an incoming req see
system.mem_ctrls.wrQLenPdf::4                       1                       # What write queue length does an incoming req see
system.mem_ctrls.wrQLenPdf::5                       1                       # What write queue length does an incoming req see
system.mem_ctrls.wrQLenPdf::6                       1                       # What write queue length does an incoming req see
system.mem_ctrls.wrQLenPdf::7                       1                       # What write queue length does an incoming req see
system.mem_ctrls.wrQLenPdf::8                       1                       # What write queue length does an incoming req see
system.mem_ctrls.wrQLenPdf::9                       1                       # What write queue length does an incoming req see
system.mem_ctrls.wrQLenPdf::10                      1                       # What write queue length does an incoming req see
system.mem_ctrls.wrQLenPdf::11                      1                       # What write queue length does an incoming req see
system.mem_ctrls.wrQLenPdf::12                      1                       # What write queue length does an incoming req see
system.mem_ctrls.wrQLenPdf::13                      1                       # What write queue length does an incoming req see
system.mem_ctrls.wrQLenPdf::14                      1                       # What write queue length does an incoming req see
system.mem_ctrls.wrQLenPdf::15                   2204                       # What write queue length does an incoming req see
system.mem_ctrls.wrQLenPdf::16                   2240                       # What write queue length does an incoming req see
system.mem_ctrls.wrQLenPdf::17                   6084                       # What write queue length does an incoming req see
system.mem_ctrls.wrQLenPdf::18                   6659                       # What write queue length does an incoming req see
system.mem_ctrls.wrQLenPdf::19                   6734                       # What write queue length does an incoming req see
system.mem_ctrls.wrQLenPdf::20                   6764                       # What write queue length does an incoming req see
system.mem_ctrls.wrQLenPdf::21                   6855                       # What write queue length does an incoming req see
system.mem_ctrls.wrQLenPdf::22                   6757                       # What write queue length does an incoming req see
system.mem_ctrls.wrQLenPdf::23                   6741                       # What write queue length does an incoming req see
system.mem_ctrls.wrQLenPdf::24                   6743                       # What write queue length does an incoming req see
system.mem_ctrls.wrQLenPdf::25                   6757                       # What write queue length does an incoming req see
system.mem_ctrls.wrQLenPdf::26                   6775                       # What write queue length does an incoming req see
system.mem_ctrls.wrQLenPdf::27                   6731                       # What write queue length does an incoming req see
system.mem_ctrls.wrQLenPdf::28                   6756                       # What write queue length does an incoming req see
system.mem_ctrls.wrQLenPdf::29                   6749                       # What write queue length does an incoming req see
system.mem_ctrls.wrQLenPdf::30                   6708                       # What write queue length does an incoming req see
system.mem_ctrls.wrQLenPdf::31                   6725                       # What write queue length does an incoming req see
system.mem_ctrls.wrQLenPdf::32                   6691                       # What write queue length does an incoming req see
system.mem_ctrls.wrQLenPdf::33                      2                       # What write queue length does an incoming req see
system.mem_ctrls.wrQLenPdf::34                      0                       # What write queue length does an incoming req see
system.mem_ctrls.wrQLenPdf::35                      0                       # What write queue length does an incoming req see
system.mem_ctrls.wrQLenPdf::36                      0                       # What write queue length does an incoming req see
system.mem_ctrls.wrQLenPdf::37                      0                       # What write queue length does an incoming req see
system.mem_ctrls.wrQLenPdf::38                      0                       # What write queue length does an incoming req see
system.mem_ctrls.wrQLenPdf::39                      0                       # What write queue length does an incoming req see
system.mem_ctrls.wrQLenPdf::40                      0                       # What write queue length does an incoming req see
system.mem_ctrls.wrQLenPdf::41                      0                       # What write queue length does an incoming req see
system.mem_ctrls.wrQLenPdf::42                      0                       # What write queue length does an incoming req see
system.mem_ctrls.wrQLenPdf::43                      0                       # What write queue length does an incoming req see
system.mem_ctrls.wrQLenPdf::44                      0                       # What write queue length does an incoming req see
system.mem_ctrls.wrQLenPdf::45                      0                       # What write queue length does an incoming req see
system.mem_ctrls.wrQLenPdf::46                      0                       # What write queue length does an incoming req see
system.mem_ctrls.wrQLenPdf::47                      0                       # What write queue length does an incoming req see
system.mem_ctrls.wrQLenPdf::48                      0                       # What write queue length does an incoming req see
system.mem_ctrls.wrQLenPdf::49                      0                       # What write queue length does an incoming req see
system.mem_ctrls.wrQLenPdf::50                      0                       # What write queue length does an incoming req see
system.mem_ctrls.wrQLenPdf::51                      0                       # What write queue length does an incoming req see
system.mem_ctrls.wrQLenPdf::52                      0                       # What write queue length does an incoming req see
system.mem_ctrls.wrQLenPdf::53                      0                       # What write queue length does an incoming req see
system.mem_ctrls.wrQLenPdf::54                      0                       # What write queue length does an incoming req see
system.mem_ctrls.wrQLenPdf::55                      0                       # What write queue length does an incoming req see
system.mem_ctrls.wrQLenPdf::56                      0                       # What write queue length does an incoming req see
system.mem_ctrls.wrQLenPdf::57                      0                       # What write queue length does an incoming req see
system.mem_ctrls.wrQLenPdf::58                      0                       # What write queue length does an incoming req see
system.mem_ctrls.wrQLenPdf::59                      0                       # What write queue length does an incoming req see
system.mem_ctrls.wrQLenPdf::60                      0                       # What write queue length does an incoming req see
system.mem_ctrls.wrQLenPdf::61                      0                       # What write queue length does an incoming req see
system.mem_ctrls.wrQLenPdf::62                      0                       # What write queue length does an incoming req see
system.mem_ctrls.wrQLenPdf::63                      0                       # What write queue length does an incoming req see
system.mem_ctrls.rdPerTurnAround::samples         6689                       # Reads before turning the bus around for writes
system.mem_ctrls.rdPerTurnAround::mean      30.253551                       # Reads before turning the bus around for writes
system.mem_ctrls.rdPerTurnAround::gmean     23.756503                       # Reads before turning the bus around for writes
system.mem_ctrls.rdPerTurnAround::stdev     59.878865                       # Reads before turning the bus around for writes
system.mem_ctrls.rdPerTurnAround::0-127          6527     97.58%     97.58% # Reads before turning the bus around for writes
system.mem_ctrls.rdPerTurnAround::128-255           30      0.45%     98.03% # Reads before turning the bus around for writes
system.mem_ctrls.rdPerTurnAround::256-383          130      1.94%     99.97% # Reads before turning the bus around for writes
system.mem_ctrls.rdPerTurnAround::2432-2559            1      0.01%     99.99% # Reads before turning the bus around for writes
system.mem_ctrls.rdPerTurnAround::2944-3071            1      0.01%    100.00% # Reads before turning the bus around for writes
system.mem_ctrls.rdPerTurnAround::total          6689                       # Reads before turning the bus around for writes
system.mem_ctrls.wrPerTurnAround::samples         6689                       # Writes before turning the bus around for reads
system.mem_ctrls.wrPerTurnAround::mean      16.695171                       # Writes before turning the bus around for reads
system.mem_ctrls.wrPerTurnAround::gmean     16.666391                       # Writes before turning the bus around for reads
system.mem_ctrls.wrPerTurnAround::stdev      0.995914                       # Writes before turning the bus around for reads
system.mem_ctrls.wrPerTurnAround::16             4441     66.39%     66.39% # Writes before turning the bus around for reads
system.mem_ctrls.wrPerTurnAround::17               35      0.52%     66.92% # Writes before turning the bus around for reads
system.mem_ctrls.wrPerTurnAround::18             2039     30.48%     97.40% # Writes before turning the bus around for reads
system.mem_ctrls.wrPerTurnAround::19              161      2.41%     99.81% # Writes before turning the bus around for reads
system.mem_ctrls.wrPerTurnAround::20               11      0.16%     99.97% # Writes before turning the bus around for reads
system.mem_ctrls.wrPerTurnAround::21                2      0.03%    100.00% # Writes before turning the bus around for reads
system.mem_ctrls.wrPerTurnAround::total          6689                       # Writes before turning the bus around for reads
system.mem_ctrls.bytesReadWrQ                    1984                       # Total number of bytes read from write queue
system.mem_ctrls.bytesReadSys                12953472                       # Total read bytes from the system interface side
system.mem_ctrls.bytesWrittenSys              7148160                       # Total written bytes from the system interface side
system.mem_ctrls.avgRdBWSys                    155.68                       # Average system read bandwidth in MiByte/s
system.mem_ctrls.avgWrBWSys                     85.91                       # Average system write bandwidth in MiByte/s
system.mem_ctrls.totGap                   83205231000                       # Total gap between requests
system.mem_ctrls.avgGap                     264910.57                       # Average gap between requests
system.mem_ctrls.requestorReadBytes::.cpu.inst        41600                       # Per-requestor bytes read from memory
system.mem_ctrls.requestorReadBytes::.cpu.data     12909888                       # Per-requestor bytes read from memory
system.mem_ctrls.requestorWriteBytes::.writebacks      7147136                       # Per-requestor bytes write to memory
system.mem_ctrls.requestorReadRate::.cpu.inst 499965.155673615693                       # Per-requestor bytes read from memory rate (Bytes/sec)
system.mem_ctrls.requestorReadRate::.cpu.data 155156109.703099608421                       # Per-requestor bytes read from memory rate (Bytes/sec)
system.mem_ctrls.requestorWriteRate::.writebacks 85897090.453377485275                       # Per-requestor bytes write to memory rate (Bytes/sec)
system.mem_ctrls.requestorReadAccesses::.cpu.inst          650                       # Per-requestor read serviced memory accesses
system.mem_ctrls.requestorReadAccesses::.cpu.data       201748                       # Per-requestor read serviced memory accesses
system.mem_ctrls.requestorWriteAccesses::.writebacks       111690                       # Per-requestor write serviced memory accesses
system.mem_ctrls.requestorReadTotalLat::.cpu.inst     17463250                       # Per-requestor read total memory access latency
system.mem_ctrls.requestorReadTotalLat::.cpu.data   6750008250                       # Per-requestor read total memory access latency
system.mem_ctrls.requestorWriteTotalLat::.writebacks 1965843456000                       # Per-requestor write total memory access latency
system.mem_ctrls.requestorReadAvgLat::.cpu.inst     26866.54                       # Per-requestor read average memory access latency
system.mem_ctrls.requestorReadAvgLat::.cpu.data     33457.62                       # Per-requestor read average memory access latency
system.mem_ctrls.requestorWriteAvgLat::.writebacks  17600890.46                       # Per-requestor write average memory access latency
system.mem_ctrls.dram.bytes_read::.cpu.inst        41600                       # Number of bytes read from this memory
system.mem_ctrls.dram.bytes_read::.cpu.data     12911872                       # Number of bytes read from this memory
system.mem_ctrls.dram.bytes_read::total      12953472                       # Number of bytes read from this memory
system.mem_ctrls.dram.bytes_inst_read::.cpu.inst        41600                       # Number of instructions bytes read from this memory
system.mem_ctrls.dram.bytes_inst_read::total        41600                       # Number of instructions bytes read from this memory
system.mem_ctrls.dram.bytes_written::.writebacks      7148160                       # Number of bytes written to this memory
system.mem_ctrls.dram.bytes_written::total      7148160                       # Number of bytes written to this memory
system.mem_ctrls.dram.num_reads::.cpu.inst          650                       # Number of read requests responded to by this memory
system.mem_ctrls.dram.num_reads::.cpu.data       201748                       # Number of read requests responded to by this memory
system.mem_ctrls.dram.num_reads::total         202398                       # Number of read requests responded to by this memory
system.mem_ctrls.dram.num_writes::.writebacks       111690                       # Number of write requests responded to by this memory
system.mem_ctrls.dram.num_writes::total        111690                       # Number of write requests responded to by this memory
system.mem_ctrls.dram.bw_read::.cpu.inst       499965                       # Total read bandwidth from this memory (bytes/s)
system.mem_ctrls.dram.bw_read::.cpu.data    155179954                       # Total read bandwidth from this memory (bytes/s)
system.mem_ctrls.dram.bw_read::total        155679919                       # Total read bandwidth from this memory (bytes/s)
system.mem_ctrls.dram.bw_inst_read::.cpu.inst       499965                       # Instruction read bandwidth from this memory (bytes/s)
system.mem_ctrls.dram.bw_inst_read::total       499965                       # Instruction read bandwidth from this memory (bytes/s)
system.mem_ctrls.dram.bw_write::.writebacks     85909397                       # Write bandwidth from this memory (bytes/s)
system.mem_ctrls.dram.bw_write::total        85909397                       # Write bandwidth from this memory (bytes/s)
system.mem_ctrls.dram.bw_total::.writebacks     85909397                       # Total bandwidth to/from this memory (bytes/s)
system.mem_ctrls.dram.bw_total::.cpu.inst       499965                       # Total bandwidth to/from this memory (bytes/s)
system.mem_ctrls.dram.bw_total::.cpu.data    155179954                       # Total bandwidth to/from this memory (bytes/s)
system.mem_ctrls.dram.bw_total::total       241589317                       # Total bandwidth to/from this memory (bytes/s)
system.mem_ctrls.dram.readBursts               202367                       # Number of DRAM read bursts
system.mem_ctrls.dram.writeBursts              111674                       # Number of DRAM write bursts
system.mem_ctrls.dram.perBankRdBursts::0        12916                       # Per bank write bursts
system.mem_ctrls.dram.perBankRdBursts::1        12935                       # Per bank write bursts
system.mem_ctrls.dram.perBankRdBursts::2        12874                       # Per bank write bursts
system.mem_ctrls.dram.perBankRdBursts::3        12733                       # Per bank write bursts
system.mem_ctrls.dram.perBankRdBursts::4        12845                       # Per bank write bursts
system.mem_ctrls.dram.perBankRdBursts::5        12756                       # Per bank write bursts
system.mem_ctrls.dram.perBankRdBursts::6        12752                       # Per bank write bursts
system.mem_ctrls.dram.perBankRdBursts::7        12507                       # Per bank write bursts
system.mem_ctrls.dram.perBankRdBursts::8        12545                       # Per bank write bursts
system.mem_ctrls.dram.perBankRdBursts::9        12432                       # Per bank write bursts
system.mem_ctrls.dram.perBankRdBursts::10        12615                       # Per bank write bursts
system.mem_ctrls.dram.perBankRdBursts::11        12441                       # Per bank write bursts
system.mem_ctrls.dram.perBankRdBursts::12        12530                       # Per bank write bursts
system.mem_ctrls.dram.perBankRdBursts::13        12147                       # Per bank write bursts
system.mem_ctrls.dram.perBankRdBursts::14        12681                       # Per bank write bursts
system.mem_ctrls.dram.perBankRdBursts::15        12658                       # Per bank write bursts
system.mem_ctrls.dram.perBankWrBursts::0         7064                       # Per bank write bursts
system.mem_ctrls.dram.perBankWrBursts::1         7090                       # Per bank write bursts
system.mem_ctrls.dram.perBankWrBursts::2         7073                       # Per bank write bursts
system.mem_ctrls.dram.perBankWrBursts::3         6953                       # Per bank write bursts
system.mem_ctrls.dram.perBankWrBursts::4         7151                       # Per bank write bursts
system.mem_ctrls.dram.perBankWrBursts::5         7115                       # Per bank write bursts
system.mem_ctrls.dram.perBankWrBursts::6         7074                       # Per bank write bursts
system.mem_ctrls.dram.perBankWrBursts::7         6948                       # Per bank write bursts
system.mem_ctrls.dram.perBankWrBursts::8         7038                       # Per bank write bursts
system.mem_ctrls.dram.perBankWrBursts::9         7029                       # Per bank write bursts
system.mem_ctrls.dram.perBankWrBursts::10         7140                       # Per bank write bursts
system.mem_ctrls.dram.perBankWrBursts::11         6767                       # Per bank write bursts
system.mem_ctrls.dram.perBankWrBursts::12         6852                       # Per bank write bursts
system.mem_ctrls.dram.perBankWrBursts::13         6517                       # Per bank write bursts
system.mem_ctrls.dram.perBankWrBursts::14         6917                       # Per bank write bursts
system.mem_ctrls.dram.perBankWrBursts::15         6946                       # Per bank write bursts
system.mem_ctrls.dram.totQLat              2973090250                       # Total ticks spent queuing
system.mem_ctrls.dram.totBusLat            1011835000                       # Total ticks spent in databus transfers
system.mem_ctrls.dram.totMemAccLat         6767471500                       # Total ticks spent from burst creation until serviced by the DRAM
system.mem_ctrls.dram.avgQLat                14691.58                       # Average queueing delay per DRAM burst
system.mem_ctrls.dram.avgBusLat               5000.00                       # Average bus latency per DRAM burst
system.mem_ctrls.dram.avgMemAccLat           33441.58                       # Average memory access latency per DRAM burst
system.mem_ctrls.dram.readRowHits              139076                       # Number of row buffer hits during reads
system.mem_ctrls.dram.writeRowHits              70031                       # Number of row buffer hits during writes
system.mem_ctrls.dram.readRowHitRate            68.72                       # Row buffer hit rate for reads
system.mem_ctrls.dram.writeRowHitRate           62.71                       # Row buffer hit rate for writes
system.mem_ctrls.dram.bytesPerActivate::samples       104930                       # Bytes accessed per row activation
system.mem_ctrls.dram.bytesPerActivate::mean   191.540722                       # Bytes accessed per row activation
system.mem_ctrls.dram.bytesPerActivate::gmean   111.635599                       # Bytes accessed per row activation
system.mem_ctrls.dram.bytesPerActivate::stdev   256.949252                       # Bytes accessed per row activation
system.mem_ctrls.dram.bytesPerActivate::0-127        69210     65.96%     65.96% # Bytes accessed per row activation
system.mem_ctrls.dram.bytesPerActivate::128-255        14560     13.88%     79.83% # Bytes accessed per row activation
system.mem_ctrls.dram.bytesPerActivate::256-383         2513      2.39%     82.23% # Bytes accessed per row activation
system.mem_ctrls.dram.bytesPerActivate::384-511         1434      1.37%     83.60% # Bytes accessed per row activation
system.mem_ctrls.dram.bytesPerActivate::512-639         9515      9.07%     92.66% # Bytes accessed per row activation
system.mem_ctrls.dram.bytesPerActivate::640-767         1001      0.95%     93.62% # Bytes accessed per row activation
system.mem_ctrls.dram.bytesPerActivate::768-895          486      0.46%     94.08% # Bytes accessed per row activation
system.mem_ctrls.dram.bytesPerActivate::896-1023          468      0.45%     94.53% # Bytes accessed per row activation
system.mem_ctrls.dram.bytesPerActivate::1024-1151         5743      5.47%    100.00% # Bytes accessed per row activation
system.mem_ctrls.dram.bytesPerActivate::total       104930                       # Bytes accessed per row activation
system.mem_ctrls.dram.bytesRead              12951488                       # Total number of bytes read from DRAM
system.mem_ctrls.dram.bytesWritten            7147136                       # Total number of bytes written to DRAM
system.mem_ctrls.dram.avgRdBW              155.656075                       # Average DRAM read bandwidth in MiBytes/s
system.mem_ctrls.dram.avgWrBW               85.897090                       # Average DRAM write bandwidth in MiBytes/s
system.mem_ctrls.dram.peakBW                 12800.00                       # Theoretical peak bandwidth in MiByte/s
system.mem_ctrls.dram.busUtil                    1.89                       # Data bus utilization in percentage
system.mem_ctrls.dram.busUtilRead                1.22                       # Data bus utilization in percentage for reads
system.mem_ctrls.dram.busUtilWrite               0.67                       # Data bus utilization in percentage for writes
system.mem_ctrls.dram.pageHitRate               66.59                       # Row buffer hit rate, read and write combined
system.mem_ctrls.dram.rank1.actEnergy       372329580                       # Energy for activate commands per rank (pJ)
system.mem_ctrls.dram.rank1.preEnergy       197894070                       # Energy for precharge commands per rank (pJ)
system.mem_ctrls.dram.rank1.readEnergy      714349860                       # Energy for read commands per rank (pJ)
system.mem_ctrls.dram.rank1.writeEnergy     288175320                       # Energy for write commands per rank (pJ)
system.mem_ctrls.dram.rank1.refreshEnergy 6568043040.000001                       # Energy for refresh commands per rank (pJ)
system.mem_ctrls.dram.rank1.actBackEnergy  21320374620                       # Energy for active background per rank (pJ)
system.mem_ctrls.dram.rank1.preBackEnergy  13997027040                       # Energy for precharge background per rank (pJ)
system.mem_ctrls.dram.rank1.actPowerDownEnergy            0                       # Energy for active power-down per rank (pJ)
system.mem_ctrls.dram.rank1.prePowerDownEnergy            0                       # Energy for precharge power-down per rank (pJ)
system.mem_ctrls.dram.rank1.selfRefreshEnergy            0                       # Energy for self refresh per rank (pJ)
system.mem_ctrls.dram.rank1.totalEnergy   43458193530                       # Total energy per rank (pJ)
system.mem_ctrls.dram.rank1.averagePower   522.297656                       # Core power per rank (mW)
system.mem_ctrls.dram.rank1.totalIdleTime            0                       # Total Idle time Per DRAM Rank
system.mem_ctrls.dram.rank1.pwrStateTime::IDLE  36172231500                       # Time in different power states
system.mem_ctrls.dram.rank1.pwrStateTime::REF   2778360000                       # Time in different power states
system.mem_ctrls.dram.rank1.pwrStateTime::SREF            0                       # Time in different power states
system.mem_ctrls.dram.rank1.pwrStateTime::PRE_PDN            0                       # Time in different power states
system.mem_ctrls.dram.rank1.pwrStateTime::ACT  44255207000                       # Time in different power states
system.mem_ctrls.dram.rank1.pwrStateTime::ACT_PDN            0                       # Time in different power states
system.mem_ctrls.dram.rank0.actEnergy       376899180                       # Energy for activate commands per rank (pJ)
system.mem_ctrls.dram.rank0.preEnergy       200315280                       # Energy for precharge commands per rank (pJ)
system.mem_ctrls.dram.rank0.readEnergy      730550520                       # Energy for read commands per rank (pJ)
system.mem_ctrls.dram.rank0.writeEnergy     294762960                       # Energy for write commands per rank (pJ)
system.mem_ctrls.dram.rank0.refreshEnergy 6568043040.000001                       # Energy for refresh commands per rank (pJ)
system.mem_ctrls.dram.rank0.actBackEnergy  22272780210                       # Energy for active background per rank (pJ)
system.mem_ctrls.dram.rank0.preBackEnergy  13195001280                       # Energy for precharge background per rank (pJ)
system.mem_ctrls.dram.rank0.actPowerDownEnergy            0                       # Energy for active power-down per rank (pJ)
system.mem_ctrls.dram.rank0.prePowerDownEnergy            0                       # Energy for precharge power-down per rank (pJ)
system.mem_ctrls.dram.rank0.selfRefreshEnergy            0                       # Energy for self refresh per rank (pJ)
system.mem_ctrls.dram.rank0.totalEnergy   43638352470                       # Total energy per rank (pJ)
system.mem_ctrls.dram.rank0.averagePower   524.462877                       # Core power per rank (mW)
system.mem_ctrls.dram.rank0.totalIdleTime            0                       # Total Idle time Per DRAM Rank
system.mem_ctrls.dram.rank0.pwrStateTime::IDLE  34074796750                       # Time in different power states
system.mem_ctrls.dram.rank0.pwrStateTime::REF   2778360000                       # Time in different power states
system.mem_ctrls.dram.rank0.pwrStateTime::SREF            0                       # Time in different power states
system.mem_ctrls.dram.rank0.pwrStateTime::PRE_PDN            0                       # Time in different power states
system.mem_ctrls.dram.rank0.pwrStateTime::ACT  46352641750                       # Time in different power states
system.mem_ctrls.dram.rank0.pwrStateTime::ACT_PDN            0                       # Time in different power states
system.mem_ctrls.dram.power_state.pwrStateResidencyTicks::UNDEFINED  83205798500                       # Cumulative time (in ticks) in various power states
system.mem_ctrls.power_state.pwrStateResidencyTicks::UNDEFINED  83205798500                       # Cumulative time (in ticks) in various power states
system.cpu_clk_domain.clock                       500                       # Clock period in ticks
system.cpu.icache.demand_hits::.cpu.inst     10457734                       # number of demand (read+write) hits
system.cpu.icache.demand_hits::total         10457734                       # number of demand (read+write) hits
system.cpu.icache.overall_hits::.cpu.inst     10457734                       # number of overall hits
system.cpu.icache.overall_hits::total        10457734                       # number of overall hits
system.cpu.icache.demand_misses::.cpu.inst          653                       # number of demand (read+write) misses
system.cpu.icache.demand_misses::total            653                       # number of demand (read+write) misses
system.cpu.icache.overall_misses::.cpu.inst          653                       # number of overall misses
system.cpu.icache.overall_misses::total           653                       # number of overall misses
system.cpu.icache.demand_miss_latency::.cpu.inst     52272000                       # number of demand (read+write) miss cycles
system.cpu.icache.demand_miss_latency::total     52272000                       # number of demand (read+write) miss cycles
system.cpu.icache.overall_miss_latency::.cpu.inst     52272000                       # number of overall miss cycles
system.cpu.icache.overall_miss_latency::total     52272000                       # number of overall miss cycles
system.cpu.icache.demand_accesses::.cpu.inst     10458387                       # number of demand (read+write) accesses
system.cpu.icache.demand_accesses::total     10458387                       # number of demand (read+write) accesses
system.cpu.icache.overall_accesses::.cpu.inst     10458387                       # number of overall (read+write) accesses
system.cpu.icache.overall_accesses::total     10458387                       # number of overall (read+write) accesses
system.cpu.icache.demand_miss_rate::.cpu.inst     0.000062                       # miss rate for demand accesses
system.cpu.icache.demand_miss_rate::total     0.000062                       # miss rate for demand accesses
system.cpu.icache.overall_miss_rate::.cpu.inst     0.000062                       # miss rate for overall accesses
system.cpu.icache.overall_miss_rate::total     0.000062                       # miss rate for overall accesses
system.cpu.icache.demand_avg_miss_latency::.cpu.inst 80049.004594                       # average overall miss latency
system.cpu.icache.demand_avg_miss_latency::total 80049.004594                       # average overall miss latency
system.cpu.icache.overall_avg_miss_latency::.cpu.inst 80049.004594                       # average overall miss latency
system.cpu.icache.overall_avg_miss_latency::total 80049.004594                       # average overall miss latency
system.cpu.icache.blocked_cycles::no_mshrs            0                       # number of cycles access was blocked
system.cpu.icache.blocked_cycles::no_targets            0                       # number of cycles access was blocked
system.cpu.icache.blocked::no_mshrs                 0                       # number of cycles access was blocked
system.cpu.icache.blocked::no_targets               0                       # number of cycles access was blocked
system.cpu.icache.avg_blocked_cycles::no_mshrs          nan                       # average number of cycles each access was blocked
system.cpu.icache.avg_blocked_cycles::no_targets          nan                       # average number of cycles each access was blocked
system.cpu.icache.writebacks::.writebacks          149                       # number of writebacks
system.cpu.icache.writebacks::total               149                       # number of writebacks
system.cpu.icache.demand_mshr_misses::.cpu.inst          653                       # number of demand (read+write) MSHR misses
system.cpu.icache.demand_mshr_misses::total          653                       # number of demand (read+write) MSHR misses
system.cpu.icache.overall_mshr_misses::.cpu.inst          653                       # number of overall MSHR misses
system.cpu.icache.overall_mshr_misses::total          653                       # number of overall MSHR misses
system.cpu.icache.demand_mshr_miss_latency::.cpu.inst     51619000                       # number of demand (read+write) MSHR miss cycles
system.cpu.icache.demand_mshr_miss_latency::total     51619000                       # number of demand (read+write) MSHR miss cycles
system.cpu.icache.overall_mshr_miss_latency::.cpu.inst     51619000                       # number of overall MSHR miss cycles
system.cpu.icache.overall_mshr_miss_latency::total     51619000                       # number of overall MSHR miss cycles
system.cpu.icache.demand_mshr_miss_rate::.cpu.inst     0.000062                       # mshr miss rate for demand accesses
system.cpu.icache.demand_mshr_miss_rate::total     0.000062                       # mshr miss rate for demand accesses
system.cpu.icache.overall_mshr_miss_rate::.cpu.inst     0.000062                       # mshr miss rate for overall accesses
system.cpu.icache.overall_mshr_miss_rate::total     0.000062                       # mshr miss rate for overall accesses
system.cpu.icache.demand_avg_mshr_miss_latency::.cpu.inst 79049.004594                       # average overall mshr miss latency
system.cpu.icache.demand_avg_mshr_miss_latency::total 79049.004594                       # average overall mshr miss latency
system.cpu.icache.overall_avg_mshr_miss_latency::.cpu.inst 79049.004594                       # average overall mshr miss latency
system.cpu.icache.overall_avg_mshr_miss_latency::total 79049.004594                       # average overall mshr miss latency
system.cpu.icache.replacements                    149                       # number of replacements
system.cpu.icache.ReadReq_hits::.cpu.inst     10457734                       # number of ReadReq hits
system.cpu.icache.ReadReq_hits::total        10457734                       # number of ReadReq hits
system.cpu.icache.ReadReq_misses::.cpu.inst          653                       # number of ReadReq misses
[...]
system.cpu.dcache.ReadReq_avg_mshr_miss_latency::.cpu.data 22055.831547                       # average ReadReq mshr miss latency
system.cpu.dcache.ReadReq_avg_mshr_miss_latency::total 22055.831547                       # average ReadReq mshr miss latency
system.cpu.dcache.WriteReq_hits::.cpu.data     10691984                       # number of WriteReq hits
system.cpu.dcache.WriteReq_hits::total       10691984                       # number of WriteReq hits
system.cpu.dcache.WriteReq_misses::.cpu.data       350243                       # number of WriteReq misses
system.cpu.dcache.WriteReq_misses::total       350243                       # number of WriteReq misses
system.cpu.dcache.WriteReq_miss_latency::.cpu.data  15765400998                       # number of WriteReq miss cycles
system.cpu.dcache.WriteReq_miss_latency::total  15765400998                       # number of WriteReq miss cycles
system.cpu.dcache.WriteReq_accesses::.cpu.data     11042227                       # number of WriteReq accesses(hits+misses)
system.cpu.dcache.WriteReq_accesses::total     11042227                       # number of WriteReq accesses(hits+misses)
system.cpu.dcache.WriteReq_miss_rate::.cpu.data     0.031719                       # miss rate for WriteReq accesses
system.cpu.dcache.WriteReq_miss_rate::total     0.031719                       # miss rate for WriteReq accesses
system.cpu.dcache.WriteReq_avg_miss_latency::.cpu.data 45012.751141                       # average WriteReq miss latency
system.cpu.dcache.WriteReq_avg_miss_latency::total 45012.751141                       # average WriteReq miss latency
system.cpu.dcache.WriteReq_mshr_hits::.cpu.data        61810                       # number of WriteReq MSHR hits
system.cpu.dcache.WriteReq_mshr_hits::total        61810                       # number of WriteReq MSHR hits
system.cpu.dcache.WriteReq_mshr_misses::.cpu.data       288433                       # number of WriteReq MSHR misses
system.cpu.dcache.WriteReq_mshr_misses::total       288433                       # number of WriteReq MSHR misses
system.cpu.dcache.WriteReq_mshr_miss_latency::.cpu.data  13893090000                       # number of WriteReq MSHR miss cycles
system.cpu.dcache.WriteReq_mshr_miss_latency::total  13893090000                       # number of WriteReq MSHR miss cycles
system.cpu.dcache.WriteReq_mshr_miss_rate::.cpu.data     0.026121                       # mshr miss rate for WriteReq accesses
system.cpu.dcache.WriteReq_mshr_miss_rate::total     0.026121                       # mshr miss rate for WriteReq accesses
system.cpu.dcache.WriteReq_avg_mshr_miss_latency::.cpu.data 48167.477369                       # average WriteReq mshr miss latency
system.cpu.dcache.WriteReq_avg_mshr_miss_latency::total 48167.477369                       # average WriteReq mshr miss latency
system.cpu.dcache.SoftPFReq_hits::.cpu.data          506                       # number of SoftPFReq hits
system.cpu.dcache.SoftPFReq_hits::total           506                       # number of SoftPFReq hits
system.cpu.dcache.SoftPFReq_misses::.cpu.data         7907                       # number of SoftPFReq misses
system.cpu.dcache.SoftPFReq_misses::total         7907                       # number of SoftPFReq misses
system.cpu.dcache.SoftPFReq_accesses::.cpu.data         8413                       # number of SoftPFReq accesses(hits+misses)
system.cpu.dcache.SoftPFReq_accesses::total         8413                       # number of SoftPFReq accesses(hits+misses)
system.cpu.dcache.SoftPFReq_miss_rate::.cpu.data     0.939855                       # miss rate for SoftPFReq accesses
system.cpu.dcache.SoftPFReq_miss_rate::total     0.939855                       # miss rate for SoftPFReq accesses
system.cpu.dcache.SoftPFReq_mshr_misses::.cpu.data         7904                       # number of SoftPFReq MSHR misses
system.cpu.dcache.SoftPFReq_mshr_misses::total         7904                       # number of SoftPFReq MSHR misses
system.cpu.dcache.SoftPFReq_mshr_miss_latency::.cpu.data    696148999                       # number of SoftPFReq MSHR miss cycles
system.cpu.dcache.SoftPFReq_mshr_miss_latency::total    696148999                       # number of SoftPFReq MSHR miss cycles
system.cpu.dcache.SoftPFReq_mshr_miss_rate::.cpu.data     0.939498                       # mshr miss rate for SoftPFReq accesses
system.cpu.dcache.SoftPFReq_mshr_miss_rate::total     0.939498                       # mshr miss rate for SoftPFReq accesses
system.cpu.dcache.SoftPFReq_avg_mshr_miss_latency::.cpu.data 88075.531250                       # average SoftPFReq mshr miss latency
system.cpu.dcache.SoftPFReq_avg_mshr_miss_latency::total 88075.531250                       # average SoftPFReq mshr miss latency
system.cpu.dcache.LoadLockedReq_hits::.cpu.data           62                       # number of LoadLockedReq hits
system.cpu.dcache.LoadLockedReq_hits::total           62                       # number of LoadLockedReq hits
system.cpu.dcache.LoadLockedReq_misses::.cpu.data            1                       # number of LoadLockedReq misses
system.cpu.dcache.LoadLockedReq_misses::total            1                       # number of LoadLockedReq misses
system.cpu.dcache.LoadLockedReq_miss_latency::.cpu.data        72000                       # number of LoadLockedReq miss cycles
system.cpu.dcache.LoadLockedReq_miss_latency::total        72000                       # number of LoadLockedReq miss cycles
system.cpu.dcache.LoadLockedReq_accesses::.cpu.data           63                       # number of LoadLockedReq accesses(hits+misses)
system.cpu.dcache.LoadLockedReq_accesses::total           63                       # number of LoadLockedReq accesses(hits+misses)
system.cpu.dcache.LoadLockedReq_miss_rate::.cpu.data     0.015873                       # miss rate for LoadLockedReq accesses
system.cpu.dcache.LoadLockedReq_miss_rate::total     0.015873                       # miss rate for LoadLockedReq accesses
system.cpu.dcache.LoadLockedReq_avg_miss_latency::.cpu.data        72000                       # average LoadLockedReq miss latency
system.cpu.dcache.LoadLockedReq_avg_miss_latency::total        72000                       # average LoadLockedReq miss latency
system.cpu.dcache.LoadLockedReq_mshr_misses::.cpu.data            1                       # number of LoadLockedReq MSHR misses
system.cpu.dcache.LoadLockedReq_mshr_misses::total            1                       # number of LoadLockedReq MSHR misses
system.cpu.dcache.LoadLockedReq_mshr_miss_latency::.cpu.data        71000                       # number of LoadLockedReq MSHR miss cycles
system.cpu.dcache.LoadLockedReq_mshr_miss_latency::total        71000                       # number of LoadLockedReq MSHR miss cycles
system.cpu.dcache.LoadLockedReq_mshr_miss_rate::.cpu.data     0.015873                       # mshr miss rate for LoadLockedReq accesses
system.cpu.dcache.LoadLockedReq_mshr_miss_rate::total     0.015873                       # mshr miss rate for LoadLockedReq accesses
system.cpu.dcache.LoadLockedReq_avg_mshr_miss_latency::.cpu.data        71000                       # average LoadLockedReq mshr miss latency
system.cpu.dcache.LoadLockedReq_avg_mshr_miss_latency::total        71000                       # average LoadLockedReq mshr miss latency
system.cpu.dcache.StoreCondReq_hits::.cpu.data           63                       # number of StoreCondReq hits
system.cpu.dcache.StoreCondReq_hits::total           63                       # number of StoreCondReq hits
system.cpu.dcache.StoreCondReq_accesses::.cpu.data           63                       # number of StoreCondReq accesses(hits+misses)
system.cpu.dcache.StoreCondReq_accesses::total           63                       # number of StoreCondReq accesses(hits+misses)
system.cpu.dcache.power_state.pwrStateResidencyTicks::UNDEFINED  83205798500                       # Cumulative time (in ticks) in various power states
system.cpu.dcache.tags.tagsinuse          1007.445360                       # Cycle average of tags in use
system.cpu.dcache.tags.total_refs            51177944                       # Total number of references to valid blocks.
system.cpu.dcache.tags.sampled_refs            688258                       # Sample count of references to valid blocks.
system.cpu.dcache.tags.avg_refs             74.358662                       # Average number of references to valid blocks.
system.cpu.dcache.tags.warmup_cycle            176500                       # Cycle when the warmup percentage was hit.
system.cpu.dcache.tags.occ_blocks::.cpu.data  1007.445360                       # Average occupied blocks per requestor
system.cpu.dcache.tags.occ_percent::.cpu.data     0.983833                       # Average percentage of cache occupancy
system.cpu.dcache.tags.occ_percent::total     0.983833                       # Average percentage of cache occupancy
system.cpu.dcache.tags.occ_task_id_blocks::1024         1024                       # Occupied blocks per task id
system.cpu.dcache.tags.age_task_id_blocks_1024::0           47                       # Occupied blocks per task id
system.cpu.dcache.tags.age_task_id_blocks_1024::1          524                       # Occupied blocks per task id
system.cpu.dcache.tags.age_task_id_blocks_1024::2          448                       # Occupied blocks per task id
system.cpu.dcache.tags.age_task_id_blocks_1024::3            5                       # Occupied blocks per task id
system.cpu.dcache.tags.occ_task_id_percent::1024            1                       # Percentage of cache occupancy per task id
system.cpu.dcache.tags.tag_accesses         103168944                       # Number of tag accesses
system.cpu.dcache.tags.data_accesses        103168944                       # Number of data accesses
system.cpu.dcache.tags.power_state.pwrStateResidencyTicks::UNDEFINED  83205798500                       # Cumulative time (in ticks) in various power states
system.cpu.power_state.pwrStateResidencyTicks::ON  83205798500                       # Cumulative time (in ticks) in various power states
system.cpu.branchPred.lookups                 4449738                       # Number of BP lookups
system.cpu.branchPred.condPredicted           3674321                       # Number of conditional branches predicted
system.cpu.branchPred.condIncorrect             88623                       # Number of conditional branches incorrect
system.cpu.branchPred.BTBLookups              2136317                       # Number of BTB lookups
system.cpu.branchPred.BTBHits                 2133865                       # Number of BTB hits
system.cpu.branchPred.BTBHitPct             99.885223                       # BTB Hit Percentage
system.cpu.branchPred.RASUsed                   76334                       # Number of times the RAS was used to get a target.
system.cpu.branchPred.RASIncorrect                 16                       # Number of incorrect RAS predictions.
system.cpu.branchPred.indirectLookups             529                       # Number of indirect predictor lookups.
system.cpu.branchPred.indirectHits                274                       # Number of indirect target hits.
system.cpu.branchPred.indirectMisses              255                       # Number of indirect misses.
system.cpu.branchPred.indirectMispredicted          156                       # Number of mispredicted indirect branches.
system.cpu.fetch2.intInstructions            43656531                       # Number of integer instructions successfully decoded
system.cpu.fetch2.fpInstructions                    0                       # Number of floating point instructions successfully decoded
system.cpu.fetch2.vecInstructions                   0                       # Number of SIMD instructions successfully decoded
system.cpu.fetch2.loadInstructions           42519568                       # Number of memory load instructions successfully decoded
system.cpu.fetch2.storeInstructions          11121785                       # Number of memory store instructions successfully decoded
system.cpu.fetch2.amoInstructions                   0                       # Number of memory atomic instructions successfully decoded
system.cpu.itb.instHits                             0                       # ITB inst hits
system.cpu.itb.instMisses                           0                       # ITB inst misses
system.cpu.itb.readHits                             0                       # DTB read hits
system.cpu.itb.readMisses                           0                       # DTB read misses
system.cpu.itb.writeHits                            0                       # DTB write hits
system.cpu.itb.writeMisses                          0                       # DTB write misses
system.cpu.itb.inserts                              0                       # Number of times an entry is inserted into the TLB
system.cpu.itb.flushTlb                             0                       # Number of times complete TLB was flushed
system.cpu.itb.flushTlbMva                          0                       # Number of times TLB was flushed by MVA
system.cpu.itb.flushTlbMvaAsid                      0                       # Number of times TLB was flushed by MVA & ASID
system.cpu.itb.flushTlbAsid                         0                       # Number of times TLB was flushed by ASID
system.cpu.itb.flushedEntries                       0                       # Number of entries that have been flushed from TLB
system.cpu.itb.alignFaults                          0                       # Number of TLB faults due to alignment restrictions
system.cpu.itb.prefetchFaults                       0                       # Number of TLB faults due to prefetch
system.cpu.itb.domainFaults                         0                       # Number of TLB faults due to domain restrictions
system.cpu.itb.permsFaults                          0                       # Number of TLB faults due to permissions restrictions
system.cpu.itb.readAccesses                         0                       # DTB read accesses
system.cpu.itb.writeAccesses                        0                       # DTB write accesses
system.cpu.itb.instAccesses                         0                       # ITB inst accesses
system.cpu.itb.hits                                 0                       # Total TLB (inst and data) hits
system.cpu.itb.misses                               0                       # Total TLB (inst and data) misses
system.cpu.itb.accesses                             0                       # Total TLB (inst and data) accesses
system.cpu.itb.walker.walks                         0                       # Table walker walks requested
system.cpu.itb.walker.requestOrigin_Requested::Data            0                       # Table walker requests started/completed, data/inst
system.cpu.itb.walker.requestOrigin_Requested::Inst            0                       # Table walker requests started/completed, data/inst
system.cpu.itb.walker.requestOrigin_Requested::total            0                       # Table walker requests started/completed, data/inst
system.cpu.itb.walker.requestOrigin_Completed::Data            0                       # Table walker requests started/completed, data/inst
system.cpu.itb.walker.requestOrigin_Completed::Inst            0                       # Table walker requests started/completed, data/inst
system.cpu.itb.walker.requestOrigin_Completed::total            0                       # Table walker requests started/completed, data/inst
system.cpu.itb.walker.requestOrigin::total            0                       # Table walker requests started/completed, data/inst
system.cpu.itb.walker.power_state.pwrStateResidencyTicks::UNDEFINED  83205798500                       # Cumulative time (in ticks) in various power states
system.cpu.itb.stage2_mmu.stage2_tlb.instHits            0                       # ITB inst hits
system.cpu.itb.stage2_mmu.stage2_tlb.instMisses            0                       # ITB inst misses
system.cpu.itb.stage2_mmu.stage2_tlb.readHits            0                       # DTB read hits
system.cpu.itb.stage2_mmu.stage2_tlb.readMisses            0                       # DTB read misses
system.cpu.itb.stage2_mmu.stage2_tlb.writeHits            0                       # DTB write hits
system.cpu.itb.stage2_mmu.stage2_tlb.writeMisses            0                       # DTB write misses
system.cpu.itb.stage2_mmu.stage2_tlb.inserts            0                       # Number of times an entry is inserted into the TLB
system.cpu.itb.stage2_mmu.stage2_tlb.flushTlb            0                       # Number of times complete TLB was flushed
system.cpu.itb.stage2_mmu.stage2_tlb.flushTlbMva            0                       # Number of times TLB was flushed by MVA
system.cpu.itb.stage2_mmu.stage2_tlb.flushTlbMvaAsid            0                       # Number of times TLB was flushed by MVA & ASID
system.cpu.itb.stage2_mmu.stage2_tlb.flushTlbAsid            0                       # Number of times TLB was flushed by ASID
system.cpu.itb.stage2_mmu.stage2_tlb.flushedEntries            0                       # Number of entries that have been flushed from TLB
system.cpu.itb.stage2_mmu.stage2_tlb.alignFaults            0                       # Number of TLB faults due to alignment restrictions
system.cpu.itb.stage2_mmu.stage2_tlb.prefetchFaults            0                       # Number of TLB faults due to prefetch
system.cpu.itb.stage2_mmu.stage2_tlb.domainFaults            0                       # Number of TLB faults due to domain restrictions
system.cpu.itb.stage2_mmu.stage2_tlb.permsFaults            0                       # Number of TLB faults due to permissions restrictions
system.cpu.itb.stage2_mmu.stage2_tlb.readAccesses            0                       # DTB read accesses
system.cpu.itb.stage2_mmu.stage2_tlb.writeAccesses            0                       # DTB write accesses
system.cpu.itb.stage2_mmu.stage2_tlb.instAccesses            0                       # ITB inst accesses
system.cpu.itb.stage2_mmu.stage2_tlb.hits            0                       # Total TLB (inst and data) hits
system.cpu.itb.stage2_mmu.stage2_tlb.misses            0                       # Total TLB (inst and data) misses
system.cpu.itb.stage2_mmu.stage2_tlb.accesses            0                       # Total TLB (inst and data) accesses
system.cpu.itb.stage2_mmu.stage2_tlb.walker.walks            0                       # Table walker walks requested
system.cpu.itb.stage2_mmu.stage2_tlb.walker.requestOrigin_Requested::Data            0                       # Table walker requests started/completed, data/inst
system.cpu.itb.stage2_mmu.stage2_tlb.walker.requestOrigin_Requested::Inst            0                       # Table walker requests started/completed, data/inst
system.cpu.itb.stage2_mmu.stage2_tlb.walker.requestOrigin_Requested::total            0                       # Table walker requests started/completed, data/inst
system.cpu.itb.stage2_mmu.stage2_tlb.walker.requestOrigin_Completed::Data            0                       # Table walker requests started/completed, data/inst
system.cpu.itb.stage2_mmu.stage2_tlb.walker.requestOrigin_Completed::Inst            0                       # Table walker requests started/completed, data/inst
system.cpu.itb.stage2_mmu.stage2_tlb.walker.requestOrigin_Completed::total            0                       # Table walker requests started/completed, data/inst
system.cpu.itb.stage2_mmu.stage2_tlb.walker.requestOrigin::total            0                       # Table walker requests started/completed, data/inst
system.cpu.itb.stage2_mmu.stage2_tlb.walker.power_state.pwrStateResidencyTicks::UNDEFINED  83205798500                       # Cumulative time (in ticks) in various power states

---------- End Simulation Statistics   ----------
