
---------- Begin Simulation Statistics ----------
final_tick                                82273108500                       # Number of ticks from beginning of simulation (restored from checkpoints and never reset)
host_inst_rate                                 128647                       # Simulator instruction rate (inst/s)
host_mem_usage                                 725200                       # Number of bytes of host memory used
host_op_rate                                   128905                       # Simulator op (including micro ops) rate (op/s)
host_seconds                                   777.32                       # Real time elapsed on the host
host_tick_rate                              105841889                       # Simulator tick rate (ticks/s)
sim_freq                                 1000000000000                       # Frequency of simulated ticks
sim_insts                                   100000001                       # Number of instructions simulated
sim_ops                                     100200384                       # Number of ops (including micro ops) simulated
sim_seconds                                  0.082273                       # Number of seconds simulated
sim_ticks                                 82273108500                       # Number of ticks simulated
system.cpu.committedInsts                   100000001                       # Number of instructions committed
system.cpu.committedOps                     100200384                       # Number of ops (including micro ops) committed
system.cpu.cpi                               1.645462                       # CPI: cycles per instruction
system.cpu.discardedOps                        213140                       # Number of ops (including micro ops) which were discarded before commit
system.cpu.idleCycles                        32314457                       # Total number of cycles that the object has spent stopped
system.cpu.ipc                               0.607732                       # IPC: instructions per cycle
system.cpu.numCycles                        164546217                       # number of cpu cycles simulated
system.cpu.numFetchSuspends                         0                       # Number of times Execute suspended instruction fetching
system.cpu.numWorkItemsCompleted                    0                       # number of work items this cpu completed
system.cpu.numWorkItemsStarted                      0                       # number of work items this cpu started
system.cpu.op_class_0::No_OpClass                   0      0.00%      0.00% # Class of committed instruction
system.cpu.op_class_0::IntAlu                47349883     47.26%     47.26% # Class of committed instruction
system.cpu.op_class_0::IntMult                  20682      0.02%     47.28% # Class of committed instruction
system.cpu.op_class_0::IntDiv                       0      0.00%     47.28% # Class of committed instruction
system.cpu.op_class_0::FloatAdd                     0      0.00%     47.28% # Class of committed instruction
system.cpu.op_class_0::FloatCmp                     0      0.00%     47.28% # Class of committed instruction
system.cpu.op_class_0::FloatCvt                     0      0.00%     47.28% # Class of committed instruction
system.cpu.op_class_0::FloatMult                    0      0.00%     47.28% # Class of committed instruction
system.cpu.op_class_0::FloatMultAcc                 0      0.00%     47.28% # Class of committed instruction
system.cpu.op_class_0::FloatDiv                     0      0.00%     47.28% # Class of committed instruction
system.cpu.op_class_0::FloatMisc                    0      0.00%     47.28% # Class of committed instruction
system.cpu.op_class_0::FloatSqrt                    0      0.00%     47.28% # Class of committed instruction
system.cpu.op_class_0::SimdAdd                      0      0.00%     47.28% # Class of committed instruction
system.cpu.op_class_0::SimdAddAcc                   0      0.00%     47.28% # Class of committed instruction
system.cpu.op_class_0::SimdAlu                      0      0.00%     47.28% # Class of committed instruction
system.cpu.op_class_0::SimdCmp                      0      0.00%     47.28% # Class of committed instruction
system.cpu.op_class_0::SimdCvt                      0      0.00%     47.28% # Class of committed instruction
system.cpu.op_class_0::SimdMisc                     0      0.00%     47.28% # Class of committed instruction
system.cpu.op_class_0::SimdMult                     0      0.00%     47.28% # Class of committed instruction
system.cpu.op_class_0::SimdMultAcc                  0      0.00%     47.28% # Class of committed instruction
system.cpu.op_class_0::SimdShift                    0      0.00%     47.28% # Class of committed instruction
system.cpu.op_class_0::SimdShiftAcc                 0      0.00%     47.28% # Class of committed instruction
system.cpu.op_class_0::SimdDiv                      0      0.00%     47.28% # Class of committed instruction
system.cpu.op_class_0::SimdSqrt                     0      0.00%     47.28% # Class of committed instruction
system.cpu.op_class_0::SimdFloatAdd                 0      0.00%     47.28% # Class of committed instruction
system.cpu.op_class_0::SimdFloatAlu                 0      0.00%     47.28% # Class of committed instruction
system.cpu.op_class_0::SimdFloatCmp                 0      0.00%     47.28% # Class of committed instruction
system.cpu.op_class_0::SimdFloatCvt                 0      0.00%     47.28% # Class of committed instruction
system.cpu.op_class_0::SimdFloatDiv                 0      0.00%     47.28% # Class of committed instruction
system.cpu.op_class_0::SimdFloatMisc                1      0.00%     47.28% # Class of committed instruction
system.cpu.op_class_0::SimdFloatMult                0      0.00%     47.28% # Class of committed instruction
system.cpu.op_class_0::SimdFloatMultAcc             0      0.00%     47.28% # Class of committed instruction
system.cpu.op_class_0::SimdFloatSqrt                0      0.00%     47.28% # Class of committed instruction
system.cpu.op_class_0::SimdReduceAdd                0      0.00%     47.28% # Class of committed instruction
system.cpu.op_class_0::SimdReduceAlu                0      0.00%     47.28% # Class of committed instruction
system.cpu.op_class_0::SimdReduceCmp                0      0.00%     47.28% # Class of committed instruction
system.cpu.op_class_0::SimdFloatReduceAdd            0      0.00%     47.28% # Class of committed instruction
system.cpu.op_class_0::SimdFloatReduceCmp            0      0.00%     47.28% # Class of committed instruction
system.cpu.op_class_0::SimdAes                      0      0.00%     47.28% # Class of committed instruction
system.cpu.op_class_0::SimdAesMix                   0      0.00%     47.28% # Class of committed instruction
system.cpu.op_class_0::SimdSha1Hash                 0      0.00%     47.28% # Class of committed instruction
system.cpu.op_class_0::SimdSha1Hash2                0      0.00%     47.28% # Class of committed instruction
system.cpu.op_class_0::SimdSha256Hash               0      0.00%     47.28% # Class of committed instruction
system.cpu.op_class_0::SimdSha256Hash2              0      0.00%     47.28% # Class of committed instruction
system.cpu.op_class_0::SimdShaSigma2                0      0.00%     47.28% # Class of committed instruction
system.cpu.op_class_0::SimdShaSigma3                0      0.00%     47.28% # Class of committed instruction
system.cpu.op_class_0::SimdPredAlu                  0      0.00%     47.28% # Class of committed instruction
system.cpu.op_class_0::MemRead               41786327     41.70%     88.98% # Class of committed instruction
system.cpu.op_class_0::MemWrite              11043491     11.02%    100.00% # Class of committed instruction
system.cpu.op_class_0::FloatMemRead                 0      0.00%    100.00% # Class of committed instruction
system.cpu.op_class_0::FloatMemWrite                0      0.00%    100.00% # Class of committed instruction
system.cpu.op_class_0::IprAccess                    0      0.00%    100.00% # Class of committed instruction
system.cpu.op_class_0::InstPrefetch                 0      0.00%    100.00% # Class of committed instruction
system.cpu.op_class_0::total                100200384                       # Class of committed instruction
system.cpu.tickCycles                       132231760                       # Number of cycles that the object actually ticked
system.cpu.workload.numSyscalls                    85                       # Number of system calls
system.membus.snoop_filter.hit_multi_requests            0                       # Number of requests hitting in the snoop filter with multiple (>1) holders of the requested data.
system.membus.snoop_filter.hit_multi_snoops            0                       # Number of snoops hitting in the snoop filter with multiple (>1) holders of the requested data.
system.membus.snoop_filter.hit_single_requests       169272                       # Number of requests hitting in the snoop filter with a single holder of the requested data.
system.membus.snoop_filter.hit_single_snoops            0                       # Number of snoops hitting in the snoop filter with a single holder of the requested data.
system.membus.snoop_filter.tot_requests        371660                       # Total number of requests made to the snoop filter.
system.membus.snoop_filter.tot_snoops               0                       # Total number of snoops made to the snoop filter.
system.tol2bus.snoop_filter.hit_multi_requests           31                       # Number of requests hitting in the snoop filter with multiple (>1) holders of the requested data.
system.tol2bus.snoop_filter.hit_multi_snoops            0                       # Number of snoops hitting in the snoop filter with multiple (>1) holders of the requested data.
system.tol2bus.snoop_filter.hit_single_requests       591072                       # Number of requests hitting in the snoop filter with a single holder of the requested data.
system.tol2bus.snoop_filter.hit_single_snoops          487                       # Number of snoops hitting in the snoop filter with a single holder of the requested data.
system.tol2bus.snoop_filter.tot_requests      1183616                       # Total number of requests made to the snoop filter.
system.tol2bus.snoop_filter.tot_snoops            487                       # Total number of snoops made to the snoop filter.
system.membus.trans_dist::ReadResp              65838                       # Transaction distribution
system.membus.trans_dist::WritebackDirty       111653                       # Transaction distribution
system.membus.trans_dist::CleanEvict            57614                       # Transaction distribution
system.membus.trans_dist::ReadExReq            136555                       # Transaction distribution
system.membus.trans_dist::ReadExResp           136555                       # Transaction distribution
system.membus.trans_dist::ReadSharedReq         65838                       # Transaction distribution
system.membus.pkt_count_system.l2.mem_side_port::system.mem_ctrls.port       574053                       # Packet count per connected requestor and responder (bytes)
system.membus.pkt_count::total                 574053                       # Packet count per connected requestor and responder (bytes)
system.membus.pkt_size_system.l2.mem_side_port::system.mem_ctrls.port     20098944                       # Cumulative packet size per connected requestor and responder (bytes)
system.membus.pkt_size::total                20098944                       # Cumulative packet size per connected requestor and responder (bytes)
system.membus.snoops                                0                       # Total snoops (count)
system.membus.snoopTraffic                          0                       # Total snoop traffic (bytes)
system.membus.snoop_fanout::samples            202393                       # Request fanout histogram
system.membus.snoop_fanout::mean                    0                       # Request fanout histogram
system.membus.snoop_fanout::stdev                   0                       # Request fanout histogram
system.membus.snoop_fanout::underflows              0      0.00%      0.00% # Request fanout histogram
system.membus.snoop_fanout::0                  202393    100.00%    100.00% # Request fanout histogram
system.membus.snoop_fanout::1                       0      0.00%    100.00% # Request fanout histogram
system.membus.snoop_fanout::overflows               0      0.00%    100.00% # Request fanout histogram
system.membus.snoop_fanout::min_value               0                       # Request fanout histogram
system.membus.snoop_fanout::max_value               0                       # Request fanout histogram
system.membus.snoop_fanout::total              202393                       # Request fanout histogram
system.membus.reqLayer0.occupancy           859437500                       # Layer occupancy (ticks)
system.membus.reqLayer0.utilization               1.0                       # Layer utilization (%)
system.membus.respLayer1.occupancy         1090218500                       # Layer occupancy (ticks)
system.membus.respLayer1.utilization              1.3                       # Layer utilization (%)
system.membus.power_state.pwrStateResidencyTicks::UNDEFINED  82273108500                       # Cumulative time (in ticks) in various power states
system.tol2bus.trans_dist::ReadResp            327283                       # Transaction distribution
system.tol2bus.trans_dist::WritebackDirty       626633                       # Transaction distribution
system.tol2bus.trans_dist::WritebackClean          228                       # Transaction distribution
system.tol2bus.trans_dist::CleanEvict          133965                       # Transaction distribution
system.tol2bus.trans_dist::ReadExReq           265261                       # Transaction distribution
system.tol2bus.trans_dist::ReadExResp          265261                       # Transaction distribution
system.tol2bus.trans_dist::ReadCleanReq           676                       # Transaction distribution
system.tol2bus.trans_dist::ReadSharedReq       326607                       # Transaction distribution
system.tol2bus.pkt_count_system.cpu.icache.mem_side_port::system.l2.cpu_side_port         1580                       # Packet count per connected requestor and responder (bytes)
system.tol2bus.pkt_count_system.cpu.dcache.mem_side_port::system.l2.cpu_side_port      1774580                       # Packet count per connected requestor and responder (bytes)
system.tol2bus.pkt_count::total               1776160                       # Packet count per connected requestor and responder (bytes)
system.tol2bus.pkt_size_system.cpu.icache.mem_side_port::system.l2.cpu_side_port        57856                       # Cumulative packet size per connected requestor and responder (bytes)
system.tol2bus.pkt_size_system.cpu.dcache.mem_side_port::system.l2.cpu_side_port     70838272                       # Cumulative packet size per connected requestor and responder (bytes)
system.tol2bus.pkt_size::total               70896128                       # Cumulative packet size per connected requestor and responder (bytes)
system.tol2bus.snoops                          169754                       # Total snoops (count)
system.tol2bus.snoopTraffic                   7145792                       # Total snoop traffic (bytes)
system.tol2bus.snoop_fanout::samples           762298                       # Request fanout histogram
system.tol2bus.snoop_fanout::mean            0.000680                       # Request fanout histogram
system.tol2bus.snoop_fanout::stdev           0.026059                       # Request fanout histogram
system.tol2bus.snoop_fanout::underflows             0      0.00%      0.00% # Request fanout histogram
system.tol2bus.snoop_fanout::0                 761780     99.93%     99.93% # Request fanout histogram
system.tol2bus.snoop_fanout::1                    518      0.07%    100.00% # Request fanout histogram
system.tol2bus.snoop_fanout::2                      0      0.00%    100.00% # Request fanout histogram
system.tol2bus.snoop_fanout::overflows              0      0.00%    100.00% # Request fanout histogram
system.tol2bus.snoop_fanout::min_value              0                       # Request fanout histogram
system.tol2bus.snoop_fanout::max_value              1                       # Request fanout histogram
system.tol2bus.snoop_fanout::total             762298                       # Request fanout histogram
system.tol2bus.reqLayer0.occupancy         1107016000                       # Layer occupancy (ticks)
system.tol2bus.reqLayer0.utilization              1.3                       # Layer utilization (%)
system.tol2bus.respLayer1.occupancy         887804994                       # Layer occupancy (ticks)
system.tol2bus.respLayer1.utilization             1.1                       # Layer utilization (%)
system.tol2bus.respLayer0.occupancy           1014000                       # Layer occupancy (ticks)
system.tol2bus.respLayer0.utilization             0.0                       # Layer utilization (%)
system.tol2bus.power_state.pwrStateResidencyTicks::UNDEFINED  82273108500                       # Cumulative time (in ticks) in various power states
system.voltage_domain.voltage                       1                       # Voltage in Volts
system.clk_domain.clock                          1000                       # Clock period in ticks
system.l2.demand_hits::.cpu.inst                   19                       # number of demand (read+write) hits
system.l2.demand_hits::.cpu.data               390126                       # number of demand (read+write) hits
system.l2.demand_hits::total                   390145                       # number of demand (read+write) hits
system.l2.overall_hits::.cpu.inst                  19                       # number of overall hits
system.l2.overall_hits::.cpu.data              390126                       # number of overall hits
system.l2.overall_hits::total                  390145                       # number of overall hits
system.l2.demand_misses::.cpu.inst                657                       # number of demand (read+write) misses
system.l2.demand_misses::.cpu.data             201742                       # number of demand (read+write) misses
system.l2.demand_misses::total                 202399                       # number of demand (read+write) misses
system.l2.overall_misses::.cpu.inst               657                       # number of overall misses
system.l2.overall_misses::.cpu.data            201742                       # number of overall misses
system.l2.overall_misses::total                202399                       # number of overall misses
system.l2.demand_miss_latency::.cpu.inst     51089500                       # number of demand (read+write) miss cycles
system.l2.demand_miss_latency::.cpu.data  17063737000                       # number of demand (read+write) miss cycles
system.l2.demand_miss_latency::total      17114826500                       # number of demand (read+write) miss cycles
system.l2.overall_miss_latency::.cpu.inst     51089500                       # number of overall miss cycles
system.l2.overall_miss_latency::.cpu.data  17063737000                       # number of overall miss cycles
system.l2.overall_miss_latency::total     17114826500                       # number of overall miss cycles
system.l2.demand_accesses::.cpu.inst              676                       # number of demand (read+write) accesses
system.l2.demand_accesses::.cpu.data           591868                       # number of demand (read+write) accesses
system.l2.demand_accesses::total               592544                       # number of demand (read+write) accesses
system.l2.overall_accesses::.cpu.inst             676                       # number of overall (read+write) accesses
system.l2.overall_accesses::.cpu.data          591868                       # number of overall (read+write) accesses
system.l2.overall_accesses::total              592544                       # number of overall (read+write) accesses
system.l2.demand_miss_rate::.cpu.inst        0.971893                       # miss rate for demand accesses
system.l2.demand_miss_rate::.cpu.data        0.340856                       # miss rate for demand accesses
system.l2.demand_miss_rate::total            0.341576                       # miss rate for demand accesses
system.l2.overall_miss_rate::.cpu.inst       0.971893                       # miss rate for overall accesses
system.l2.overall_miss_rate::.cpu.data       0.340856                       # miss rate for overall accesses
system.l2.overall_miss_rate::total           0.341576                       # miss rate for overall accesses
system.l2.demand_avg_miss_latency::.cpu.inst 77761.796043                       # average overall miss latency
system.l2.demand_avg_miss_latency::.cpu.data 84581.975989                       # average overall miss latency
system.l2.demand_avg_miss_latency::total 84559.837252                       # average overall miss latency
system.l2.overall_avg_miss_latency::.cpu.inst 77761.796043                       # average overall miss latency
system.l2.overall_avg_miss_latency::.cpu.data 84581.975989                       # average overall miss latency
system.l2.overall_avg_miss_latency::total 84559.837252                       # average overall miss latency
system.l2.blocked_cycles::no_mshrs                  0                       # number of cycles access was blocked
system.l2.blocked_cycles::no_targets                0                       # number of cycles access was blocked
system.l2.blocked::no_mshrs                         0                       # number of cycles access was blocked
system.l2.blocked::no_targets                       0                       # number of cycles access was blocked
system.l2.avg_blocked_cycles::no_mshrs            nan                       # average number of cycles each access was blocked
system.l2.avg_blocked_cycles::no_targets          nan                       # average number of cycles each access was blocked
system.l2.writebacks::.writebacks              111653                       # number of writebacks
system.l2.writebacks::total                    111653                       # number of writebacks
system.l2.demand_mshr_hits::.cpu.data               6                       # number of demand (read+write) MSHR hits
system.l2.demand_mshr_hits::total                   6                       # number of demand (read+write) MSHR hits
system.l2.overall_mshr_hits::.cpu.data              6                       # number of overall MSHR hits
system.l2.overall_mshr_hits::total                  6                       # number of overall MSHR hits
system.l2.demand_mshr_misses::.cpu.inst           657                       # number of demand (read+write) MSHR misses
system.l2.demand_mshr_misses::.cpu.data        201736                       # number of demand (read+write) MSHR misses
system.l2.demand_mshr_misses::total            202393                       # number of demand (read+write) MSHR misses
system.l2.overall_mshr_misses::.cpu.inst          657                       # number of overall MSHR misses
system.l2.overall_mshr_misses::.cpu.data       201736                       # number of overall MSHR misses
system.l2.overall_mshr_misses::total           202393                       # number of overall MSHR misses
system.l2.demand_mshr_miss_latency::.cpu.inst     44519500                       # number of demand (read+write) MSHR miss cycles
system.l2.demand_mshr_miss_latency::.cpu.data  15045969500                       # number of demand (read+write) MSHR miss cycles
system.l2.demand_mshr_miss_latency::total  15090489000                       # number of demand (read+write) MSHR miss cycles
system.l2.overall_mshr_miss_latency::.cpu.inst     44519500                       # number of overall MSHR miss cycles
system.l2.overall_mshr_miss_latency::.cpu.data  15045969500                       # number of overall MSHR miss cycles
system.l2.overall_mshr_miss_latency::total  15090489000                       # number of overall MSHR miss cycles
system.l2.demand_mshr_miss_rate::.cpu.inst     0.971893                       # mshr miss rate for demand accesses
system.l2.demand_mshr_miss_rate::.cpu.data     0.340846                       # mshr miss rate for demand accesses
system.l2.demand_mshr_miss_rate::total       0.341566                       # mshr miss rate for demand accesses
system.l2.overall_mshr_miss_rate::.cpu.inst     0.971893                       # mshr miss rate for overall accesses
system.l2.overall_mshr_miss_rate::.cpu.data     0.340846                       # mshr miss rate for overall accesses
system.l2.overall_mshr_miss_rate::total      0.341566                       # mshr miss rate for overall accesses
system.l2.demand_avg_mshr_miss_latency::.cpu.inst 67761.796043                       # average overall mshr miss latency
system.l2.demand_avg_mshr_miss_latency::.cpu.data 74582.471646                       # average overall mshr miss latency
system.l2.demand_avg_mshr_miss_latency::total 74560.330644                       # average overall mshr miss latency
system.l2.overall_avg_mshr_miss_latency::.cpu.inst 67761.796043                       # average overall mshr miss latency
system.l2.overall_avg_mshr_miss_latency::.cpu.data 74582.471646                       # average overall mshr miss latency
system.l2.overall_avg_mshr_miss_latency::total 74560.330644                       # average overall mshr miss latency
system.l2.replacements                         169754                       # number of replacements
system.l2.WritebackDirty_hits::.writebacks       514980                       # number of WritebackDirty hits
system.l2.WritebackDirty_hits::total           514980                       # number of WritebackDirty hits
system.l2.WritebackDirty_accesses::.writebacks       514980                       # number of WritebackDirty accesses(hits+misses)
system.l2.WritebackDirty_accesses::total       514980                       # number of WritebackDirty accesses(hits+misses)
system.l2.WritebackClean_hits::.writebacks          224                       # number of WritebackClean hits
system.l2.WritebackClean_hits::total              224                       # number of WritebackClean hits
system.l2.WritebackClean_accesses::.writebacks          224                       # number of WritebackClean accesses(hits+misses)
system.l2.WritebackClean_accesses::total          224                       # number of WritebackClean accesses(hits+misses)
system.l2.ReadExReq_hits::.cpu.data            128706                       # number of ReadExReq hits
system.l2.ReadExReq_hits::total                128706                       # number of ReadExReq hits
system.l2.ReadExReq_misses::.cpu.data          136555                       # number of ReadExReq misses
system.l2.ReadExReq_misses::total              136555                       # number of ReadExReq misses
system.l2.ReadExReq_miss_latency::.cpu.data  11847885000                       # number of ReadExReq miss cycles
system.l2.ReadExReq_miss_latency::total   11847885000                       # number of ReadExReq miss cycles
system.l2.ReadExReq_accesses::.cpu.data        265261                       # number of ReadExReq accesses(hits+misses)
system.l2.ReadExReq_accesses::total            265261                       # number of ReadExReq accesses(hits+misses)
system.l2.ReadExReq_miss_rate::.cpu.data     0.514795                       # miss rate for ReadExReq accesses
system.l2.ReadExReq_miss_rate::total         0.514795                       # miss rate for ReadExReq accesses
system.l2.ReadExReq_avg_miss_latency::.cpu.data 86762.732965                       # average ReadExReq miss latency
system.l2.ReadExReq_avg_miss_latency::total 86762.732965                       # average ReadExReq miss latency
system.l2.ReadExReq_mshr_misses::.cpu.data       136555                       # number of ReadExReq MSHR misses
system.l2.ReadExReq_mshr_misses::total         136555                       # number of ReadExReq MSHR misses
system.l2.ReadExReq_mshr_miss_latency::.cpu.data  10482335000                       # number of ReadExReq MSHR miss cycles
system.l2.ReadExReq_mshr_miss_latency::total  10482335000                       # number of ReadExReq MSHR miss cycles
system.l2.ReadExReq_mshr_miss_rate::.cpu.data     0.514795                       # mshr miss rate for ReadExReq accesses
system.l2.ReadExReq_mshr_miss_rate::total     0.514795                       # mshr miss rate for ReadExReq accesses
system.l2.ReadExReq_avg_mshr_miss_latency::.cpu.data 76762.732965                       # average ReadExReq mshr miss latency
system.l2.ReadExReq_avg_mshr_miss_latency::total 76762.732965                       # average ReadExReq mshr miss latency
system.l2.ReadCleanReq_hits::.cpu.inst             19                       # number of ReadCleanReq hits
system.l2.ReadCleanReq_hits::total                 19                       # number of ReadCleanReq hits
system.l2.ReadCleanReq_misses::.cpu.inst          657                       # number of ReadCleanReq misses
system.l2.ReadCleanReq_misses::total              657                       # number of ReadCleanReq misses
system.l2.ReadCleanReq_miss_latency::.cpu.inst     51089500                       # number of ReadCleanReq miss cycles
system.l2.ReadCleanReq_miss_latency::total     51089500                       # number of ReadCleanReq miss cycles
system.l2.ReadCleanReq_accesses::.cpu.inst          676                       # number of ReadCleanReq accesses(hits+misses)
system.l2.ReadCleanReq_accesses::total            676                       # number of ReadCleanReq accesses(hits+misses)
system.l2.ReadCleanReq_miss_rate::.cpu.inst     0.971893                       # miss rate for ReadCleanReq accesses
system.l2.ReadCleanReq_miss_rate::total      0.971893                       # miss rate for ReadCleanReq accesses
system.l2.ReadCleanReq_avg_miss_latency::.cpu.inst 77761.796043                       # average ReadCleanReq miss latency
system.l2.ReadCleanReq_avg_miss_latency::total 77761.796043                       # average ReadCleanReq miss latency
system.l2.ReadCleanReq_mshr_misses::.cpu.inst          657                       # number of ReadCleanReq MSHR misses
system.l2.ReadCleanReq_mshr_misses::total          657                       # number of ReadCleanReq MSHR misses
system.l2.ReadCleanReq_mshr_miss_latency::.cpu.inst     44519500                       # number of ReadCleanReq MSHR miss cycles
system.l2.ReadCleanReq_mshr_miss_latency::total     44519500                       # number of ReadCleanReq MSHR miss cycles
system.l2.ReadCleanReq_mshr_miss_rate::.cpu.inst     0.971893                       # mshr miss rate for ReadCleanReq accesses
system.l2.ReadCleanReq_mshr_miss_rate::total     0.971893                       # mshr miss rate for ReadCleanReq accesses
system.l2.ReadCleanReq_avg_mshr_miss_latency::.cpu.inst 67761.796043                       # average ReadCleanReq mshr miss latency
system.l2.ReadCleanReq_avg_mshr_miss_latency::total 67761.796043                       # average ReadCleanReq mshr miss latency
system.l2.ReadSharedReq_hits::.cpu.data        261420                       # number of ReadSharedReq hits
system.l2.ReadSharedReq_hits::total            261420                       # number of ReadSharedReq hits
system.l2.ReadSharedReq_misses::.cpu.data        65187                       # number of ReadSharedReq misses
system.l2.ReadSharedReq_misses::total           65187                       # number of ReadSharedReq misses
system.l2.ReadSharedReq_miss_latency::.cpu.data   5215852000                       # number of ReadSharedReq miss cycles
system.l2.ReadSharedReq_miss_latency::total   5215852000                       # number of ReadSharedReq miss cycles
system.l2.ReadSharedReq_accesses::.cpu.data       326607                       # number of ReadSharedReq accesses(hits+misses)
system.l2.ReadSharedReq_accesses::total        326607                       # number of ReadSharedReq accesses(hits+misses)
system.l2.ReadSharedReq_miss_rate::.cpu.data     0.199588                       # miss rate for ReadSharedReq accesses
system.l2.ReadSharedReq_miss_rate::total     0.199588                       # miss rate for ReadSharedReq accesses
system.l2.ReadSharedReq_avg_miss_latency::.cpu.data 80013.683710                       # average ReadSharedReq miss latency
system.l2.ReadSharedReq_avg_miss_latency::total 80013.683710                       # average ReadSharedReq miss latency
system.l2.ReadSharedReq_mshr_hits::.cpu.data            6                       # number of ReadSharedReq MSHR hits
system.l2.ReadSharedReq_mshr_hits::total            6                       # number of ReadSharedReq MSHR hits
system.l2.ReadSharedReq_mshr_misses::.cpu.data        65181                       # number of ReadSharedReq MSHR misses
system.l2.ReadSharedReq_mshr_misses::total        65181                       # number of ReadSharedReq MSHR misses
system.l2.ReadSharedReq_mshr_miss_latency::.cpu.data   4563634500                       # number of ReadSharedReq MSHR miss cycles
system.l2.ReadSharedReq_mshr_miss_latency::total   4563634500                       # number of ReadSharedReq MSHR miss cycles
system.l2.ReadSharedReq_mshr_miss_rate::.cpu.data     0.199570                       # mshr miss rate for ReadSharedReq accesses
system.l2.ReadSharedReq_mshr_miss_rate::total     0.199570                       # mshr miss rate for ReadSharedReq accesses
system.l2.ReadSharedReq_avg_mshr_miss_latency::.cpu.data 70014.797257                       # average ReadSharedReq mshr miss latency
system.l2.ReadSharedReq_avg_mshr_miss_latency::total 70014.797257                       # average ReadSharedReq mshr miss latency
system.l2.power_state.pwrStateResidencyTicks::UNDEFINED  82273108500                       # Cumulative time (in ticks) in various power states
system.l2.tags.tagsinuse                 31886.910567                       # Cycle average of tags in use
system.l2.tags.total_refs                     1183579                       # Total number of references to valid blocks.
system.l2.tags.sampled_refs                    202522                       # Sample count of references to valid blocks.
system.l2.tags.avg_refs                      5.844200                       # Average number of references to valid blocks.
system.l2.tags.warmup_cycle                     77000                       # Cycle when the warmup percentage was hit.
system.l2.tags.occ_blocks::.writebacks      34.998717                       # Average occupied blocks per requestor
system.l2.tags.occ_blocks::.cpu.inst        82.911821                       # Average occupied blocks per requestor
system.l2.tags.occ_blocks::.cpu.data     31769.000029                       # Average occupied blocks per requestor
system.l2.tags.occ_percent::.writebacks      0.001068                       # Average percentage of cache occupancy
system.l2.tags.occ_percent::.cpu.inst        0.002530                       # Average percentage of cache occupancy
system.l2.tags.occ_percent::.cpu.data        0.969513                       # Average percentage of cache occupancy
system.l2.tags.occ_percent::total            0.973111                       # Average percentage of cache occupancy
system.l2.tags.occ_task_id_blocks::1024         32768                       # Occupied blocks per task id
system.l2.tags.age_task_id_blocks_1024::0            7                       # Occupied blocks per task id
system.l2.tags.age_task_id_blocks_1024::1          124                       # Occupied blocks per task id
system.l2.tags.age_task_id_blocks_1024::2         1134                       # Occupied blocks per task id
system.l2.tags.age_task_id_blocks_1024::3        15792                       # Occupied blocks per task id
system.l2.tags.age_task_id_blocks_1024::4        15711                       # Occupied blocks per task id
system.l2.tags.occ_task_id_percent::1024            1                       # Percentage of cache occupancy per task id
system.l2.tags.tag_accesses                   9671202                       # Number of tag accesses
system.l2.tags.data_accesses                  9671202                       # Number of data accesses
system.l2.tags.power_state.pwrStateResidencyTicks::UNDEFINED  82273108500                       # Cumulative time (in ticks) in various power states
system.cpu_voltage_domain.voltage                   1                       # Voltage in Volts
system.mem_ctrls.avgPriority_.writebacks::samples    111653.00                       # Average QoS priority value for accepted requests
system.mem_ctrls.avgPriority_.cpu.inst::samples       657.00                       # Average QoS priority value for accepted requests
system.mem_ctrls.avgPriority_.cpu.data::samples    201691.00                       # Average QoS priority value for accepted requests
system.mem_ctrls.priorityMinLatency      0.000000018750                       # per QoS priority minimum request to response latency (s)
system.mem_ctrls.priorityMaxLatency      0.003451592500                       # per QoS priority maximum request to response latency (s)
system.mem_ctrls.numReadWriteTurnArounds         6682                       # Number of turnarounds from READ to WRITE
system.mem_ctrls.numWriteReadTurnArounds         6682                       # Number of turnarounds from WRITE to READ
system.mem_ctrls.numStayReadState              527390                       # Number of times bus staying in READ state
system.mem_ctrls.numStayWriteState             105115                       # Number of times bus staying in WRITE state
system.mem_ctrls.readReqs                      202393                       # Number of read requests accepted
system.mem_ctrls.writeReqs                     111653                       # Number of write requests accepted
system.mem_ctrls.readBursts                    202393                       # Number of controller read bursts, including those serviced by the write queue
system.mem_ctrls.writeBursts                   111653                       # Number of controller write bursts, including those merged in the write queue
system.mem_ctrls.servicedByWrQ                     45                       # Number of controller read bursts serviced by the write queue
system.mem_ctrls.mergedWrBursts                     0                       # Number of controller write bursts merged with an existing one
system.mem_ctrls.neitherReadNorWriteReqs            0                       # Number of requests that are neither read nor write
system.mem_ctrls.avgRdQLen                       1.09                       # Average read queue length when enqueuing
system.mem_ctrls.avgWrQLen                      24.74                       # Average write queue length when enqueuing
system.mem_ctrls.numRdRetry                         0                       # Number of times read queue was full causing retry
system.mem_ctrls.numWrRetry                         0                       # Number of times write queue was full causing retry
system.mem_ctrls.readPktSize::0                     0                       # Read request sizes (log2)
system.mem_ctrls.readPktSize::1                     0                       # Read request sizes (log2)
system.mem_ctrls.readPktSize::2                     0                       # Read request sizes (log2)
system.mem_ctrls.readPktSize::3                     0                       # Read request sizes (log2)
system.mem_ctrls.readPktSize::4                     0                       # Read request sizes (log2)
system.mem_ctrls.readPktSize::5                     0                       # Read request sizes (log2)
system.mem_ctrls.readPktSize::6                202393                       # Read request sizes (log2)
system.mem_ctrls.writePktSize::0                    0                       # Write request sizes (log2)
system.mem_ctrls.writePktSize::1                    0                       # Write request sizes (log2)
system.mem_ctrls.writePktSize::2                    0                       # Write request sizes (log2)
system.mem_ctrls.writePktSize::3                    0                       # Write request sizes (log2)
system.mem_ctrls.writePktSize::4                    0                       # Write request sizes (log2)
system.mem_ctrls.writePktSize::5                    0                       # Write request sizes (log2)
system.mem_ctrls.writePktSize::6               111653                       # Write request sizes (log2)
system.mem_ctrls.rdQLenPdf::0                  140384                       # What read queue length does an incoming req see
system.mem_ctrls.rdQLenPdf::1                   59751                       # What read queue length does an incoming req see
system.mem_ctrls.rdQLenPdf::2                    1866                       # What read queue length does an incoming req see
system.mem_ctrls.rdQLenPdf::3                     346                       # What read queue length does an incoming req see
system.mem_ctrls.rdQLenPdf::4                       1                       # What read queue length does an incoming req see
system.mem_ctrls.rdQLenPdf::5                       0                       # What read queue length does an incoming req see
system.mem_ctrls.rdQLenPdf::6                       0                       # What read queue length does an incoming req see
system.mem_ctrls.rdQLenPdf::7                       0                       # What read queue length does an incoming req see
system.mem_ctrls.rdQLenPdf::8                       0                       # What read queue length does an incoming req see
system.mem_ctrls.rdQLenPdf::9                       0                       # What read queue length does an incoming req see
system.mem_ctrls.rdQLenPdf::10                      0                       # What read queue length does an incoming req see
system.mem_ctrls.rdQLenPdf::11                      0                       # What read queue length does an incoming req see
system.mem_ctrls.rdQLenPdf::12                      0                       # What read queue length does an incoming req see
system.mem_ctrls.rdQLenPdf::13                      0                       # What read queue length does an incoming req see
system.mem_ctrls.rdQLenPdf::14                      0                       # What read queue length does an incoming req see
system.mem_ctrls.rdQLenPdf::15                      0                       # What read queue length does an incoming req see
system.mem_ctrls.rdQLenPdf::16                      0                       # What read queue length does an incoming req see
system.mem_ctrls.rdQLenPdf::17                      0                       # What read queue length does an incoming req see
system.mem_ctrls.rdQLenPdf::18                      0                       # What read queue length does an incoming req see
system.mem_ctrls.rdQLenPdf::19                      0                       # What read queue length does an incoming req see
system.mem_ctrls.rdQLenPdf::20                      0                       # What read queue length does an incoming req see
system.mem_ctrls.rdQLenPdf::21                      0                       # What read queue length does an incoming req see
system.mem_ctrls.rdQLenPdf::22                      0                       # What read queue length does an incoming req see
system.mem_ctrls.rdQLenPdf::23                      0                       # What read queue length does an incoming req see
system.mem_ctrls.rdQLenPdf::24                      0                       # What read queue length does an incoming req see
system.mem_ctrls.rdQLenPdf::25                      0                       # What read queue length does an incoming req see
system.mem_ctrls.rdQLenPdf::26                      0                       # What read queue length does an incoming req see
system.mem_ctrls.rdQLenPdf::27                      0                       # What read queue length does an incoming req see
system.mem_ctrls.rdQLenPdf::28                      0                       # What read queue length does an incoming req see
system.mem_ctrls.rdQLenPdf::29                      0                       # What read queue length does an incoming req see
system.mem_ctrls.rdQLenPdf::30                      0                       # What read queue length does an incoming req see
system.mem_ctrls.rdQLenPdf::31                      0                       # What read queue length does an incoming req see
system.mem_ctrls.wrQLenPdf::0                       1                       # What write queue length does an incoming req see
system.mem_ctrls.wrQLenPdf::1                       1                       # What write queue length does an incoming req see
system.mem_ctrls.wrQLenPdf::2                       1                       # What write queue length does an incoming req see
system.mem_ctrls.wrQLenPdf::3                       1                       # What write queue length does an incoming req see
system.mem_ctrls.wrQLenPdf::4                       1                       # What write queue length does an incoming req see
system.mem_ctrls.wrQLenPdf::5                       1                       # What write queue length does an incoming req see
system.mem_ctrls.wrQLenPdf::6                       1                       # What write queue length does an incoming req see
system.mem_ctrls.wrQLenPdf::7                       1                       # What write queue length does an incoming req see
system.mem_ctrls.wrQLenPdf::8                       1                       # What write queue length does an incoming req see
system.mem_ctrls.wrQLenPdf::9                       1                       # What write queue length does an incoming req see
system.mem_ctrls.wrQLenPdf::10                      1                       # What write queue length does an incoming req see
system.mem_ctrls.wrQLenPdf::11                      1                       # What write queue length does an incoming req see
system.mem_ctrls.wrQLenPdf::12                      1                       # What write queue length does an incoming req see
system.mem_ctrls.wrQLenPdf::13                      1                       # What write queue length does an incoming req see
system.mem_ctrls.wrQLenPdf::14                      1                       # What write queue length does an incoming req see
system.mem_ctrls.wrQLenPdf::15                   2242                       # What write queue length does an incoming req see
system.mem_ctrls.wrQLenPdf::16                   2274                       # What write queue length does an incoming req see
system.mem_ctrls.wrQLenPdf::17                   6055                       # What write queue length does an incoming req see
system.mem_ctrls.wrQLenPdf::18                   6647                       # What write queue length does an incoming req see
system.mem_ctrls.wrQLenPdf::19                   6728                       # What write queue length does an incoming req see
system.mem_ctrls.wrQLenPdf::20                   6771                       # What write queue length does an incoming req see
system.mem_ctrls.wrQLenPdf::21                   6829                       # What write queue length does an incoming req see
system.mem_ctrls.wrQLenPdf::22                   6738                       # What write queue length does an incoming req see
system.mem_ctrls.wrQLenPdf::23                   6744                       # What write queue length does an incoming req see
system.mem_ctrls.wrQLenPdf::24                   6737                       # What write queue length does an incoming req see
system.mem_ctrls.wrQLenPdf::25                   6754                       # What write queue length does an incoming req see
system.mem_ctrls.wrQLenPdf::26                   6808                       # What write queue length does an incoming req see
system.mem_ctrls.wrQLenPdf::27                   6725                       # What write queue length does an incoming req see
system.mem_ctrls.wrQLenPdf::28                   6750                       # What write queue length does an incoming req see
system.mem_ctrls.wrQLenPdf::29                   6745                       # What write queue length does an incoming req see
system.mem_ctrls.wrQLenPdf::30                   6702                       # What write queue length does an incoming req see
system.mem_ctrls.wrQLenPdf::31                   6703                       # What write queue length does an incoming req see
system.mem_ctrls.wrQLenPdf::32                   6682                       # What write queue length does an incoming req see
system.mem_ctrls.wrQLenPdf::33                      4                       # What write queue length does an incoming req see
system.mem_ctrls.wrQLenPdf::34                      0                       # What write queue length does an incoming req see
system.mem_ctrls.wrQLenPdf::35                      0                       # What write queue length does an incoming req see
system.mem_ctrls.wrQLenPdf::36                      0                       # What write queue length does an incoming req see
system.mem_ctrls.wrQLenPdf::37                      0                       # What write queue length does an incoming req see
system.mem_ctrls.wrQLenPdf::38                      0                       # What write queue length does an incoming req see
system.mem_ctrls.wrQLenPdf::39                      0                       # What write queue length does an incoming req see
system.mem_ctrls.wrQLenPdf::40                      0                       # What write queue length does an incoming req see
system.mem_ctrls.wrQLenPdf::41                      0                       # What write queue length does an incoming req see
system.mem_ctrls.wrQLenPdf::42                      0                       # What write queue length does an incoming req see
system.mem_ctrls.wrQLenPdf::43                      0                       # What write queue length does an incoming req see
system.mem_ctrls.wrQLenPdf::44                      0                       # What write queue length does an incoming req see
system.mem_ctrls.wrQLenPdf::45                      0                       # What write queue length does an incoming req see
system.mem_ctrls.wrQLenPdf::46                      0                       # What write queue length does an incoming req see
system.mem_ctrls.wrQLenPdf::47                      0                       # What write queue length does an incoming req see
system.mem_ctrls.wrQLenPdf::48                      0                       # What write queue length does an incoming req see
system.mem_ctrls.wrQLenPdf::49                      0                       # What write queue length does an incoming req see
system.mem_ctrls.wrQLenPdf::50                      0                       # What write queue length does an incoming req see
system.mem_ctrls.wrQLenPdf::51                      0                       # What write queue length does an incoming req see
system.mem_ctrls.wrQLenPdf::52                      0                       # What write queue length does an incoming req see
system.mem_ctrls.wrQLenPdf::53                      0                       # What write queue length does an incoming req see
system.mem_ctrls.wrQLenPdf::54                      0                       # What write queue length does an incoming req see
system.mem_ctrls.wrQLenPdf::55                      0                       # What write queue length does an incoming req see
system.mem_ctrls.wrQLenPdf::56                      0                       # What write queue length does an incoming req see
system.mem_ctrls.wrQLenPdf::57                      0                       # What write queue length does an incoming req see
system.mem_ctrls.wrQLenPdf::58                      0                       # What write queue length does an incoming req see
system.mem_ctrls.wrQLenPdf::59                      0                       # What write queue length does an incoming req see
system.mem_ctrls.wrQLenPdf::60                      0                       # What write queue length does an incoming req see
system.mem_ctrls.wrQLenPdf::61                      0                       # What write queue length does an incoming req see
system.mem_ctrls.wrQLenPdf::62                      0                       # What write queue length does an incoming req see
system.mem_ctrls.wrQLenPdf::63                      0                       # What write queue length does an incoming req see
system.mem_ctrls.rdPerTurnAround::samples         6682                       # Reads before turning the bus around for writes
system.mem_ctrls.rdPerTurnAround::mean      30.281503                       # Reads before turning the bus around for writes
system.mem_ctrls.rdPerTurnAround::gmean     23.812193                       # Reads before turning the bus around for writes
system.mem_ctrls.rdPerTurnAround::stdev     59.528238                       # Reads before turning the bus around for writes
system.mem_ctrls.rdPerTurnAround::0-127          6518     97.55%     97.55% # Reads before turning the bus around for writes
system.mem_ctrls.rdPerTurnAround::128-255           34      0.51%     98.05% # Reads before turning the bus around for writes
system.mem_ctrls.rdPerTurnAround::256-383          128      1.92%     99.97% # Reads before turning the bus around for writes
system.mem_ctrls.rdPerTurnAround::2432-2559            1      0.01%     99.99% # Reads before turning the bus around for writes
system.mem_ctrls.rdPerTurnAround::2944-3071            1      0.01%    100.00% # Reads before turning the bus around for writes
system.mem_ctrls.rdPerTurnAround::total          6682                       # Reads before turning the bus around for writes
system.mem_ctrls.wrPerTurnAround::samples         6682                       # Writes before turning the bus around for reads
system.mem_ctrls.wrPerTurnAround::mean      16.706226                       # Writes before turning the bus around for reads
system.mem_ctrls.wrPerTurnAround::gmean     16.677364                       # Writes before turning the bus around for reads
system.mem_ctrls.wrPerTurnAround::stdev      0.996951                       # Writes before turning the bus around for reads
system.mem_ctrls.wrPerTurnAround::16             4394     65.76%     65.76% # Writes before turning the bus around for reads
system.mem_ctrls.wrPerTurnAround::17               41      0.61%     66.37% # Writes before turning the bus around for reads
system.mem_ctrls.wrPerTurnAround::18             2072     31.01%     97.38% # Writes before turning the bus around for reads
system.mem_ctrls.wrPerTurnAround::19              169      2.53%     99.91% # Writes before turning the bus around for reads
system.mem_ctrls.wrPerTurnAround::20                3      0.04%     99.96% # Writes before turning the bus around for reads
system.mem_ctrls.wrPerTurnAround::21                3      0.04%    100.00% # Writes before turning the bus around for reads
system.mem_ctrls.wrPerTurnAround::total          6682                       # Writes before turning the bus around for reads
system.mem_ctrls.bytesReadWrQ                    2880                       # Total number of bytes read from write queue
system.mem_ctrls.bytesReadSys                12953152                       # Total read bytes from the system interface side
system.mem_ctrls.bytesWrittenSys              7145792                       # Total written bytes from the system interface side
system.mem_ctrls.avgRdBWSys                    157.44                       # Average system read bandwidth in MiByte/s
system.mem_ctrls.avgWrBWSys                     86.85                       # Average system write bandwidth in MiByte/s
system.mem_ctrls.totGap                   82272541000                       # Total gap between requests
system.mem_ctrls.avgGap                     261976.08                       # Average gap between requests
system.mem_ctrls.requestorReadBytes::.cpu.inst        42048                       # Per-requestor bytes read from memory
system.mem_ctrls.requestorReadBytes::.cpu.data     12908224                       # Per-requestor bytes read from memory
system.mem_ctrls.requestorWriteBytes::.writebacks      7144384                       # Per-requestor bytes write to memory
system.mem_ctrls.requestorReadRate::.cpu.inst 511078.294799083727                       # Per-requestor bytes read from memory rate (Bytes/sec)
system.mem_ctrls.requestorReadRate::.cpu.data 156894813.327735155821                       # Per-requestor bytes read from memory rate (Bytes/sec)
system.mem_ctrls.requestorWriteRate::.writebacks 86837414.195915549994                       # Per-requestor bytes write to memory rate (Bytes/sec)
system.mem_ctrls.requestorReadAccesses::.cpu.inst          657                       # Per-requestor read serviced memory accesses
system.mem_ctrls.requestorReadAccesses::.cpu.data       201736                       # Per-requestor read serviced memory accesses
system.mem_ctrls.requestorWriteAccesses::.writebacks       111653                       # Per-requestor write serviced memory accesses
system.mem_ctrls.requestorReadTotalLat::.cpu.inst     17594000                       # Per-requestor read total memory access latency
system.mem_ctrls.requestorReadTotalLat::.cpu.data   6726104000                       # Per-requestor read total memory access latency
system.mem_ctrls.requestorWriteTotalLat::.writebacks 1950778623750                       # Per-requestor write total memory access latency
system.mem_ctrls.requestorReadAvgLat::.cpu.inst     26779.30                       # Per-requestor read average memory access latency
system.mem_ctrls.requestorReadAvgLat::.cpu.data     33341.12                       # Per-requestor read average memory access latency
system.mem_ctrls.requestorWriteAvgLat::.writebacks  17471797.66                       # Per-requestor write average memory access latency
system.mem_ctrls.dram.bytes_read::.cpu.inst        42048                       # Number of bytes read from this memory
system.mem_ctrls.dram.bytes_read::.cpu.data     12911104                       # Number of bytes read from this memory
system.mem_ctrls.dram.bytes_read::total      12953152                       # Number of bytes read from this memory
system.mem_ctrls.dram.bytes_inst_read::.cpu.inst        42048                       # Number of instructions bytes read from this memory
system.mem_ctrls.dram.bytes_inst_read::total        42048                       # Number of instructions bytes read from this memory
system.mem_ctrls.dram.bytes_written::.writebacks      7145792                       # Number of bytes written to this memory
system.mem_ctrls.dram.bytes_written::total      7145792                       # Number of bytes written to this memory
system.mem_ctrls.dram.num_reads::.cpu.inst          657                       # Number of read requests responded to by this memory
system.mem_ctrls.dram.num_reads::.cpu.data       201736                       # Number of read requests responded to by this memory
system.mem_ctrls.dram.num_reads::total         202393                       # Number of read requests responded to by this memory
system.mem_ctrls.dram.num_writes::.writebacks       111653                       # Number of write requests responded to by this memory
system.mem_ctrls.dram.num_writes::total        111653                       # Number of write requests responded to by this memory
system.mem_ctrls.dram.bw_read::.cpu.inst       511078                       # Total read bandwidth from this memory (bytes/s)
system.mem_ctrls.dram.bw_read::.cpu.data    156929819                       # Total read bandwidth from this memory (bytes/s)
system.mem_ctrls.dram.bw_read::total        157440897                       # Total read bandwidth from this memory (bytes/s)
system.mem_ctrls.dram.bw_inst_read::.cpu.inst       511078                       # Instruction read bandwidth from this memory (bytes/s)
system.mem_ctrls.dram.bw_inst_read::total       511078                       # Instruction read bandwidth from this memory (bytes/s)
system.mem_ctrls.dram.bw_write::.writebacks     86854528                       # Write bandwidth from this memory (bytes/s)
system.mem_ctrls.dram.bw_write::total        86854528                       # Write bandwidth from this memory (bytes/s)
system.mem_ctrls.dram.bw_total::.writebacks     86854528                       # Total bandwidth to/from this memory (bytes/s)
system.mem_ctrls.dram.bw_total::.cpu.inst       511078                       # Total bandwidth to/from this memory (bytes/s)
system.mem_ctrls.dram.bw_total::.cpu.data    156929819                       # Total bandwidth to/from this memory (bytes/s)
system.mem_ctrls.dram.bw_total::total       244295425                       # Total bandwidth to/from this memory (bytes/s)
system.mem_ctrls.dram.readBursts               202348                       # Number of DRAM read bursts
system.mem_ctrls.dram.writeBursts              111631                       # Number of DRAM write bursts
system.mem_ctrls.dram.perBankRdBursts::0        12910                       # Per bank write bursts
system.mem_ctrls.dram.perBankRdBursts::1        12938                       # Per bank write bursts
system.mem_ctrls.dram.perBankRdBursts::2        12871                       # Per bank write bursts
system.mem_ctrls.dram.perBankRdBursts::3        12733                       # Per bank write bursts
system.mem_ctrls.dram.perBankRdBursts::4        12845                       # Per bank write bursts
system.mem_ctrls.dram.perBankRdBursts::5        12756                       # Per bank write bursts
system.mem_ctrls.dram.perBankRdBursts::6        12742                       # Per bank write bursts
system.mem_ctrls.dram.perBankRdBursts::7        12507                       # Per bank write bursts
system.mem_ctrls.dram.perBankRdBursts::8        12540                       # Per bank write bursts
system.mem_ctrls.dram.perBankRdBursts::9        12431                       # Per bank write bursts
system.mem_ctrls.dram.perBankRdBursts::10        12607                       # Per bank write bursts
system.mem_ctrls.dram.perBankRdBursts::11        12445                       # Per bank write bursts
system.mem_ctrls.dram.perBankRdBursts::12        12532                       # Per bank write bursts
system.mem_ctrls.dram.perBankRdBursts::13        12149                       # Per bank write bursts
system.mem_ctrls.dram.perBankRdBursts::14        12685                       # Per bank write bursts
system.mem_ctrls.dram.perBankRdBursts::15        12657                       # Per bank write bursts
system.mem_ctrls.dram.perBankWrBursts::0         7047                       # Per bank write bursts
system.mem_ctrls.dram.perBankWrBursts::1         7088                       # Per bank write bursts
system.mem_ctrls.dram.perBankWrBursts::2         7072                       # Per bank write bursts
system.mem_ctrls.dram.perBankWrBursts::3         6953                       # Per bank write bursts
system.mem_ctrls.dram.perBankWrBursts::4         7149                       # Per bank write bursts
system.mem_ctrls.dram.perBankWrBursts::5         7113                       # Per bank write bursts
system.mem_ctrls.dram.perBankWrBursts::6         7077                       # Per bank write bursts
system.mem_ctrls.dram.perBankWrBursts::7         6949                       # Per bank write bursts
system.mem_ctrls.dram.perBankWrBursts::8         7027                       # Per bank write bursts
system.mem_ctrls.dram.perBankWrBursts::9         7029                       # Per bank write bursts
system.mem_ctrls.dram.perBankWrBursts::10         7131                       # Per bank write bursts
system.mem_ctrls.dram.perBankWrBursts::11         6768                       # Per bank write bursts
system.mem_ctrls.dram.perBankWrBursts::12         6853                       # Per bank write bursts
system.mem_ctrls.dram.perBankWrBursts::13         6517                       # Per bank write bursts
system.mem_ctrls.dram.perBankWrBursts::14         6913                       # Per bank write bursts
system.mem_ctrls.dram.perBankWrBursts::15         6945                       # Per bank write bursts
system.mem_ctrls.dram.totQLat              2949673000                       # Total ticks spent queuing
system.mem_ctrls.dram.totBusLat            1011740000                       # Total ticks spent in databus transfers
system.mem_ctrls.dram.totMemAccLat         6743698000                       # Total ticks spent from burst creation until serviced by the DRAM
system.mem_ctrls.dram.avgQLat                14577.23                       # Average queueing delay per DRAM burst
system.mem_ctrls.dram.avgBusLat               5000.00                       # Average bus latency per DRAM burst
system.mem_ctrls.dram.avgMemAccLat           33327.23                       # Average memory access latency per DRAM burst
system.mem_ctrls.dram.readRowHits              139040                       # Number of row buffer hits during reads
system.mem_ctrls.dram.writeRowHits              70124                       # Number of row buffer hits during writes
system.mem_ctrls.dram.readRowHitRate            68.71                       # Row buffer hit rate for reads
system.mem_ctrls.dram.writeRowHitRate           62.82                       # Row buffer hit rate for writes
system.mem_ctrls.dram.bytesPerActivate::samples       104814                       # Bytes accessed per row activation
system.mem_ctrls.dram.bytesPerActivate::mean   191.716068                       # Bytes accessed per row activation
system.mem_ctrls.dram.bytesPerActivate::gmean   111.787661                       # Bytes accessed per row activation
system.mem_ctrls.dram.bytesPerActivate::stdev   256.898536                       # Bytes accessed per row activation
system.mem_ctrls.dram.bytesPerActivate::0-127        68969     65.80%     65.80% # Bytes accessed per row activation
system.mem_ctrls.dram.bytesPerActivate::128-255        14642     13.97%     79.77% # Bytes accessed per row activation
system.mem_ctrls.dram.bytesPerActivate::256-383         2621      2.50%     82.27% # Bytes accessed per row activation
system.mem_ctrls.dram.bytesPerActivate::384-511         1397      1.33%     83.60% # Bytes accessed per row activation
system.mem_ctrls.dram.bytesPerActivate::512-639         9088      8.67%     92.27% # Bytes accessed per row activation
system.mem_ctrls.dram.bytesPerActivate::640-767         1482      1.41%     93.69% # Bytes accessed per row activation
system.mem_ctrls.dram.bytesPerActivate::768-895          433      0.41%     94.10% # Bytes accessed per row activation
system.mem_ctrls.dram.bytesPerActivate::896-1023          474      0.45%     94.55% # Bytes accessed per row activation
system.mem_ctrls.dram.bytesPerActivate::1024-1151         5708      5.45%    100.00% # Bytes accessed per row activation
system.mem_ctrls.dram.bytesPerActivate::total       104814                       # Bytes accessed per row activation
system.mem_ctrls.dram.bytesRead              12950272                       # Total number of bytes read from DRAM
system.mem_ctrls.dram.bytesWritten            7144384                       # Total number of bytes written to DRAM
system.mem_ctrls.dram.avgRdBW              157.405892                       # Average DRAM read bandwidth in MiBytes/s
system.mem_ctrls.dram.avgWrBW               86.837414                       # Average DRAM write bandwidth in MiBytes/s
system.mem_ctrls.dram.peakBW                 12800.00                       # Theoretical peak bandwidth in MiByte/s
system.mem_ctrls.dram.busUtil                    1.91                       # Data bus utilization in percentage
system.mem_ctrls.dram.busUtilRead                1.23                       # Data bus utilization in percentage for reads
system.mem_ctrls.dram.busUtilWrite               0.68                       # Data bus utilization in percentage for writes
system.mem_ctrls.dram.pageHitRate               66.62                       # Row buffer hit rate, read and write combined
system.mem_ctrls.dram.rank1.actEnergy       372208200                       # Energy for activate commands per rank (pJ)
system.mem_ctrls.dram.rank1.preEnergy       197833350                       # Energy for precharge commands per rank (pJ)
system.mem_ctrls.dram.rank1.readEnergy      714328440                       # Energy for read commands per rank (pJ)
system.mem_ctrls.dram.rank1.writeEnergy     288055260                       # Energy for write commands per rank (pJ)
system.mem_ctrls.dram.rank1.refreshEnergy 6494286240.000001                       # Energy for refresh commands per rank (pJ)
system.mem_ctrls.dram.rank1.actBackEnergy  20996514870                       # Energy for active background per rank (pJ)
system.mem_ctrls.dram.rank1.preBackEnergy  13911598080                       # Energy for precharge background per rank (pJ)
system.mem_ctrls.dram.rank1.actPowerDownEnergy            0                       # Energy for active power-down per rank (pJ)
system.mem_ctrls.dram.rank1.prePowerDownEnergy            0                       # Energy for precharge power-down per rank (pJ)
system.mem_ctrls.dram.rank1.selfRefreshEnergy            0                       # Energy for self refresh per rank (pJ)
system.mem_ctrls.dram.rank1.totalEnergy   42974824440                       # Total energy per rank (pJ)
system.mem_ctrls.dram.rank1.averagePower   522.343512                       # Core power per rank (mW)
system.mem_ctrls.dram.rank1.totalIdleTime            0                       # Total Idle time Per DRAM Rank
system.mem_ctrls.dram.rank1.pwrStateTime::IDLE  35951180750                       # Time in different power states
system.mem_ctrls.dram.rank1.pwrStateTime::REF   2747160000                       # Time in different power states
system.mem_ctrls.dram.rank1.pwrStateTime::SREF            0                       # Time in different power states
system.mem_ctrls.dram.rank1.pwrStateTime::PRE_PDN            0                       # Time in different power states
system.mem_ctrls.dram.rank1.pwrStateTime::ACT  43574767750                       # Time in different power states
system.mem_ctrls.dram.rank1.pwrStateTime::ACT_PDN            0                       # Time in different power states
system.mem_ctrls.dram.rank0.actEnergy       376170900                       # Energy for activate commands per rank (pJ)
system.mem_ctrls.dram.rank0.preEnergy       199935780                       # Energy for precharge commands per rank (pJ)
system.mem_ctrls.dram.rank0.readEnergy      730436280                       # Energy for read commands per rank (pJ)
system.mem_ctrls.dram.rank0.writeEnergy     294658560                       # Energy for write commands per rank (pJ)
system.mem_ctrls.dram.rank0.refreshEnergy 6494286240.000001                       # Energy for refresh commands per rank (pJ)
system.mem_ctrls.dram.rank0.actBackEnergy  22044922710                       # Energy for active background per rank (pJ)
system.mem_ctrls.dram.rank0.preBackEnergy  13028728320                       # Energy for precharge background per rank (pJ)
system.mem_ctrls.dram.rank0.actPowerDownEnergy            0                       # Energy for active power-down per rank (pJ)
system.mem_ctrls.dram.rank0.prePowerDownEnergy            0                       # Energy for precharge power-down per rank (pJ)
system.mem_ctrls.dram.rank0.selfRefreshEnergy            0                       # Energy for self refresh per rank (pJ)
system.mem_ctrls.dram.rank0.totalEnergy   43169138790                       # Total energy per rank (pJ)
system.mem_ctrls.dram.rank0.averagePower   524.705333                       # Core power per rank (mW)
system.mem_ctrls.dram.rank0.totalIdleTime            0                       # Total Idle time Per DRAM Rank
system.mem_ctrls.dram.rank0.pwrStateTime::IDLE  33644122250                       # Time in different power states
system.mem_ctrls.dram.rank0.pwrStateTime::REF   2747160000                       # Time in different power states
system.mem_ctrls.dram.rank0.pwrStateTime::SREF            0                       # Time in different power states
system.mem_ctrls.dram.rank0.pwrStateTime::PRE_PDN            0                       # Time in different power states
system.mem_ctrls.dram.rank0.pwrStateTime::ACT  45881826250                       # Time in different power states
system.mem_ctrls.dram.rank0.pwrStateTime::ACT_PDN            0                       # Time in different power states
system.mem_ctrls.dram.power_state.pwrStateResidencyTicks::UNDEFINED  82273108500                       # Cumulative time (in ticks) in various power states
system.mem_ctrls.power_state.pwrStateResidencyTicks::UNDEFINED  82273108500                       # Cumulative time (in ticks) in various power states
system.cpu_clk_domain.clock                       500                       # Clock period in ticks
system.cpu.icache.demand_hits::.cpu.inst     10456943                       # number of demand (read+write) hits
system.cpu.icache.demand_hits::total         10456943                       # number of demand (read+write) hits
system.cpu.icache.overall_hits::.cpu.inst     10456943                       # number of overall hits
system.cpu.icache.overall_hits::total        10456943                       # number of overall hits
system.cpu.icache.demand_misses::.cpu.inst          676                       # number of demand (read+write) misses
system.cpu.icache.demand_misses::total            676                       # number of demand (read+write) misses
system.cpu.icache.overall_misses::.cpu.inst          676                       # number of overall misses
system.cpu.icache.overall_misses::total           676                       # number of overall misses
system.cpu.icache.demand_miss_latency::.cpu.inst     52982500                       # number of demand (read+write) miss cycles
system.cpu.icache.demand_miss_latency::total     52982500                       # number of demand (read+write) miss cycles
system.cpu.icache.overall_miss_latency::.cpu.inst     52982500                       # number of overall miss cycles
system.cpu.icache.overall_miss_latency::total     52982500                       # number of overall miss cycles
system.cpu.icache.demand_accesses::.cpu.inst     10457619                       # number of demand (read+write) accesses
system.cpu.icache.demand_accesses::total     10457619                       # number of demand (read+write) accesses
system.cpu.icache.overall_accesses::.cpu.inst     10457619                       # number of overall (read+write) accesses
system.cpu.icache.overall_accesses::total     10457619                       # number of overall (read+write) accesses
system.cpu.icache.demand_miss_rate::.cpu.inst     0.000065                       # miss rate for demand accesses
system.cpu.icache.demand_miss_rate::total     0.000065                       # miss rate for demand accesses
system.cpu.icache.overall_miss_rate::.cpu.inst     0.000065                       # miss rate for overall accesses
system.cpu.icache.overall_miss_rate::total     0.000065                       # miss rate for overall accesses
system.cpu.icache.demand_avg_miss_latency::.cpu.inst 78376.479290                       # average overall miss latency
system.cpu.icache.demand_avg_miss_latency::total 78376.479290                       # average overall miss latency
system.cpu.icache.overall_avg_miss_latency::.cpu.inst 78376.479290                       # average overall miss latency
system.cpu.icache.overall_avg_miss_latency::total 78376.479290                       # average overall miss latency
system.cpu.icache.blocked_cycles::no_mshrs            0                       # number of cycles access was blocked
system.cpu.icache.blocked_cycles::no_targets            0                       # number of cycles access was blocked
system.cpu.icache.blocked::no_mshrs                 0                       # number of cycles access was blocked
system.cpu.icache.blocked::no_targets               0                       # number of cycles access was blocked
system.cpu.icache.avg_blocked_cycles::no_mshrs          nan                       # average number of cycles each access was blocked
system.cpu.icache.avg_blocked_cycles::no_targets          nan                       # average number of cycles each access was blocked
system.cpu.icache.writebacks::.writebacks          228                       # number of writebacks
system.cpu.icache.writebacks::total               228                       # number of writebacks
system.cpu.icache.demand_mshr_misses::.cpu.inst          676                       # number of demand (read+write) MSHR misses
system.cpu.icache.demand_mshr_misses::total          676                       # number of demand (read+write) MSHR misses
system.cpu.icache.overall_mshr_misses::.cpu.inst          676                       # number of overall MSHR misses
system.cpu.icache.overall_mshr_misses::total          676                       # number of overall MSHR misses
system.cpu.icache.demand_mshr_miss_latency::.cpu.inst     52306500                       # number of demand (read+write) MSHR miss cycles
system.cpu.icache.demand_mshr_miss_latency::total     52306500                       # number of demand (read+write) MSHR miss cycles
system.cpu.icache.overall_mshr_miss_latency::.cpu.inst     52306500                       # number of overall MSHR miss cycles
system.cpu.icache.overall_mshr_miss_latency::total     52306500                       # number of overall MSHR miss cycles
system.cpu.icache.demand_mshr_miss_rate::.cpu.inst     0.000065                       # mshr miss rate for demand accesses
system.cpu.icache.demand_mshr_miss_rate::total     0.000065                       # mshr miss rate for demand accesses
system.cpu.icache.overall_mshr_miss_rate::.cpu.inst     0.000065                       # mshr miss rate for overall accesses
system.cpu.icache.overall_mshr_miss_rate::total     0.000065                       # mshr miss rate for overall accesses
system.cpu.icache.demand_avg_mshr_miss_latency::.cpu.inst 77376.479290                       # average overall mshr miss latency
system.cpu.icache.demand_avg_mshr_miss_latency::total 77376.479290                       # average overall mshr miss latency
system.cpu.icache.overall_avg_mshr_miss_latency::.cpu.inst 77376.479290                       # average overall mshr miss latency
system.cpu.icache.overall_avg_mshr_miss_latency::total 77376.479290                       # average overall mshr miss latency
system.cpu.icache.replacements                    228                       # number of replacements
system.cpu.icache.ReadReq_hits::.cpu.inst     10456943                       # number of ReadReq hits
system.cpu.icache.ReadReq_hits::total        10456943                       # number of ReadReq hits
system.cpu.icache.ReadReq_misses::.cpu.inst          676                       # number of ReadReq misses
[...]
system.cpu.dcache.ReadReq_avg_mshr_miss_latency::total 24355.575114                       # average ReadReq mshr miss latency
system.cpu.dcache.WriteReq_hits::.cpu.data     10715189                       # number of WriteReq hits
system.cpu.dcache.WriteReq_hits::total       10715189                       # number of WriteReq hits
system.cpu.dcache.WriteReq_misses::.cpu.data       327038                       # number of WriteReq misses
system.cpu.dcache.WriteReq_misses::total       327038                       # number of WriteReq misses
system.cpu.dcache.WriteReq_miss_latency::.cpu.data  15431660499                       # number of WriteReq miss cycles
system.cpu.dcache.WriteReq_miss_latency::total  15431660499                       # number of WriteReq miss cycles
system.cpu.dcache.WriteReq_accesses::.cpu.data     11042227                       # number of WriteReq accesses(hits+misses)
system.cpu.dcache.WriteReq_accesses::total     11042227                       # number of WriteReq accesses(hits+misses)
system.cpu.dcache.WriteReq_miss_rate::.cpu.data     0.029617                       # miss rate for WriteReq accesses
system.cpu.dcache.WriteReq_miss_rate::total     0.029617                       # miss rate for WriteReq accesses
system.cpu.dcache.WriteReq_avg_miss_latency::.cpu.data 47186.138917                       # average WriteReq miss latency
system.cpu.dcache.WriteReq_avg_miss_latency::total 47186.138917                       # average WriteReq miss latency
system.cpu.dcache.WriteReq_mshr_hits::.cpu.data        61777                       # number of WriteReq MSHR hits
system.cpu.dcache.WriteReq_mshr_hits::total        61777                       # number of WriteReq MSHR hits
system.cpu.dcache.WriteReq_mshr_misses::.cpu.data       265261                       # number of WriteReq MSHR misses
system.cpu.dcache.WriteReq_mshr_misses::total       265261                       # number of WriteReq MSHR misses
system.cpu.dcache.WriteReq_mshr_miss_latency::.cpu.data  13598649000                       # number of WriteReq MSHR miss cycles
system.cpu.dcache.WriteReq_mshr_miss_latency::total  13598649000                       # number of WriteReq MSHR miss cycles
system.cpu.dcache.WriteReq_mshr_miss_rate::.cpu.data     0.024022                       # mshr miss rate for WriteReq accesses
system.cpu.dcache.WriteReq_mshr_miss_rate::total     0.024022                       # mshr miss rate for WriteReq accesses
system.cpu.dcache.WriteReq_avg_mshr_miss_latency::.cpu.data 51265.165252                       # average WriteReq mshr miss latency
system.cpu.dcache.WriteReq_avg_mshr_miss_latency::total 51265.165252                       # average WriteReq mshr miss latency
system.cpu.dcache.SoftPFReq_hits::.cpu.data          506                       # number of SoftPFReq hits
system.cpu.dcache.SoftPFReq_hits::total           506                       # number of SoftPFReq hits
system.cpu.dcache.SoftPFReq_misses::.cpu.data         7907                       # number of SoftPFReq misses
system.cpu.dcache.SoftPFReq_misses::total         7907                       # number of SoftPFReq misses
system.cpu.dcache.SoftPFReq_accesses::.cpu.data         8413                       # number of SoftPFReq accesses(hits+misses)
system.cpu.dcache.SoftPFReq_accesses::total         8413                       # number of SoftPFReq accesses(hits+misses)
system.cpu.dcache.SoftPFReq_miss_rate::.cpu.data     0.939855                       # miss rate for SoftPFReq accesses
system.cpu.dcache.SoftPFReq_miss_rate::total     0.939855                       # miss rate for SoftPFReq accesses
system.cpu.dcache.SoftPFReq_mshr_misses::.cpu.data         7904                       # number of SoftPFReq MSHR misses
system.cpu.dcache.SoftPFReq_mshr_misses::total         7904                       # number of SoftPFReq MSHR misses
system.cpu.dcache.SoftPFReq_mshr_miss_latency::.cpu.data    689456999                       # number of SoftPFReq MSHR miss cycles
system.cpu.dcache.SoftPFReq_mshr_miss_latency::total    689456999                       # number of SoftPFReq MSHR miss cycles
system.cpu.dcache.SoftPFReq_mshr_miss_rate::.cpu.data     0.939498                       # mshr miss rate for SoftPFReq accesses
system.cpu.dcache.SoftPFReq_mshr_miss_rate::total     0.939498                       # mshr miss rate for SoftPFReq accesses
system.cpu.dcache.SoftPFReq_avg_mshr_miss_latency::.cpu.data 87228.871331                       # average SoftPFReq mshr miss latency
system.cpu.dcache.SoftPFReq_avg_mshr_miss_latency::total 87228.871331                       # average SoftPFReq mshr miss latency
system.cpu.dcache.LoadLockedReq_hits::.cpu.data           62                       # number of LoadLockedReq hits
system.cpu.dcache.LoadLockedReq_hits::total           62                       # number of LoadLockedReq hits
system.cpu.dcache.LoadLockedReq_misses::.cpu.data            1                       # number of LoadLockedReq misses
system.cpu.dcache.LoadLockedReq_misses::total            1                       # number of LoadLockedReq misses
system.cpu.dcache.LoadLockedReq_miss_latency::.cpu.data        72000                       # number of LoadLockedReq miss cycles
system.cpu.dcache.LoadLockedReq_miss_latency::total        72000                       # number of LoadLockedReq miss cycles
system.cpu.dcache.LoadLockedReq_accesses::.cpu.data           63                       # number of LoadLockedReq accesses(hits+misses)
system.cpu.dcache.LoadLockedReq_accesses::total           63                       # number of LoadLockedReq accesses(hits+misses)
system.cpu.dcache.LoadLockedReq_miss_rate::.cpu.data     0.015873                       # miss rate for LoadLockedReq accesses
system.cpu.dcache.LoadLockedReq_miss_rate::total     0.015873                       # miss rate for LoadLockedReq accesses
system.cpu.dcache.LoadLockedReq_avg_miss_latency::.cpu.data        72000                       # average LoadLockedReq miss latency
system.cpu.dcache.LoadLockedReq_avg_miss_latency::total        72000                       # average LoadLockedReq miss latency
system.cpu.dcache.LoadLockedReq_mshr_misses::.cpu.data            1                       # number of LoadLockedReq MSHR misses
system.cpu.dcache.LoadLockedReq_mshr_misses::total            1                       # number of LoadLockedReq MSHR misses
system.cpu.dcache.LoadLockedReq_mshr_miss_latency::.cpu.data        71000                       # number of LoadLockedReq MSHR miss cycles
system.cpu.dcache.LoadLockedReq_mshr_miss_latency::total        71000                       # number of LoadLockedReq MSHR miss cycles
system.cpu.dcache.LoadLockedReq_mshr_miss_rate::.cpu.data     0.015873                       # mshr miss rate for LoadLockedReq accesses
system.cpu.dcache.LoadLockedReq_mshr_miss_rate::total     0.015873                       # mshr miss rate for LoadLockedReq accesses
system.cpu.dcache.LoadLockedReq_avg_mshr_miss_latency::.cpu.data        71000                       # average LoadLockedReq mshr miss latency
system.cpu.dcache.LoadLockedReq_avg_mshr_miss_latency::total        71000                       # average LoadLockedReq mshr miss latency
system.cpu.dcache.StoreCondReq_hits::.cpu.data           63                       # number of StoreCondReq hits
system.cpu.dcache.StoreCondReq_hits::total           63                       # number of StoreCondReq hits
system.cpu.dcache.StoreCondReq_accesses::.cpu.data           63                       # number of StoreCondReq accesses(hits+misses)
system.cpu.dcache.StoreCondReq_accesses::total           63                       # number of StoreCondReq accesses(hits+misses)
system.cpu.dcache.power_state.pwrStateResidencyTicks::UNDEFINED  82273108500                       # Cumulative time (in ticks) in various power states
system.cpu.dcache.tags.tagsinuse          1007.228958                       # Cycle average of tags in use
system.cpu.dcache.tags.total_refs            51172163                       # Total number of references to valid blocks.
system.cpu.dcache.tags.sampled_refs            591868                       # Sample count of references to valid blocks.
system.cpu.dcache.tags.avg_refs             86.458742                       # Average number of references to valid blocks.
system.cpu.dcache.tags.warmup_cycle            176500                       # Cycle when the warmup percentage was hit.
system.cpu.dcache.tags.occ_blocks::.cpu.data  1007.228958                       # Average occupied blocks per requestor
system.cpu.dcache.tags.occ_percent::.cpu.data     0.983622                       # Average percentage of cache occupancy
system.cpu.dcache.tags.occ_percent::total     0.983622                       # Average percentage of cache occupancy
system.cpu.dcache.tags.occ_task_id_blocks::1024         1024                       # Occupied blocks per task id
system.cpu.dcache.tags.age_task_id_blocks_1024::0           46                       # Occupied blocks per task id
system.cpu.dcache.tags.age_task_id_blocks_1024::1          598                       # Occupied blocks per task id
system.cpu.dcache.tags.age_task_id_blocks_1024::2          363                       # Occupied blocks per task id
system.cpu.dcache.tags.age_task_id_blocks_1024::3           15                       # Occupied blocks per task id
system.cpu.dcache.tags.age_task_id_blocks_1024::4            2                       # Occupied blocks per task id
system.cpu.dcache.tags.occ_task_id_percent::1024            1                       # Percentage of cache occupancy per task id
system.cpu.dcache.tags.tag_accesses         820344652                       # Number of tag accesses
system.cpu.dcache.tags.data_accesses        820344652                       # Number of data accesses
system.cpu.dcache.tags.power_state.pwrStateResidencyTicks::UNDEFINED  82273108500                       # Cumulative time (in ticks) in various power states
system.cpu.power_state.pwrStateResidencyTicks::ON  82273108500                       # Cumulative time (in ticks) in various power states
system.cpu.branchPred.lookups                 4449755                       # Number of BP lookups
system.cpu.branchPred.condPredicted           3674346                       # Number of conditional branches predicted
system.cpu.branchPred.condIncorrect             88623                       # Number of conditional branches incorrect
system.cpu.branchPred.BTBLookups              2136308                       # Number of BTB lookups
system.cpu.branchPred.BTBHits                 2133854                       # Number of BTB hits
system.cpu.branchPred.BTBHitPct             99.885129                       # BTB Hit Percentage
system.cpu.branchPred.RASUsed                   76334                       # Number of times the RAS was used to get a target.
system.cpu.branchPred.RASIncorrect                 16                       # Number of incorrect RAS predictions.
system.cpu.branchPred.indirectLookups             529                       # Number of indirect predictor lookups.
system.cpu.branchPred.indirectHits                274                       # Number of indirect target hits.
system.cpu.branchPred.indirectMisses              255                       # Number of indirect misses.
system.cpu.branchPred.indirectMispredicted          156                       # Number of mispredicted indirect branches.
system.cpu.fetch2.intInstructions            43656447                       # Number of integer instructions successfully decoded
system.cpu.fetch2.fpInstructions                    0                       # Number of floating point instructions successfully decoded
system.cpu.fetch2.vecInstructions                   0                       # Number of SIMD instructions successfully decoded
system.cpu.fetch2.loadInstructions           42519526                       # Number of memory load instructions successfully decoded
system.cpu.fetch2.storeInstructions          11121757                       # Number of memory store instructions successfully decoded
system.cpu.fetch2.amoInstructions                   0                       # Number of memory atomic instructions successfully decoded
system.cpu.itb.instHits                             0                       # ITB inst hits
system.cpu.itb.instMisses                           0                       # ITB inst misses
system.cpu.itb.readHits                             0                       # DTB read hits
system.cpu.itb.readMisses                           0                       # DTB read misses
system.cpu.itb.writeHits                            0                       # DTB write hits
system.cpu.itb.writeMisses                          0                       # DTB write misses
system.cpu.itb.inserts                              0                       # Number of times an entry is inserted into the TLB
system.cpu.itb.flushTlb                             0                       # Number of times complete TLB was flushed
system.cpu.itb.flushTlbMva                          0                       # Number of times TLB was flushed by MVA
system.cpu.itb.flushTlbMvaAsid                      0                       # Number of times TLB was flushed by MVA & ASID
system.cpu.itb.flushTlbAsid                         0                       # Number of times TLB was flushed by ASID
system.cpu.itb.flushedEntries                       0                       # Number of entries that have been flushed from TLB
system.cpu.itb.alignFaults                          0                       # Number of TLB faults due to alignment restrictions
system.cpu.itb.prefetchFaults                       0                       # Number of TLB faults due to prefetch
system.cpu.itb.domainFaults                         0                       # Number of TLB faults due to domain restrictions
system.cpu.itb.permsFaults                          0                       # Number of TLB faults due to permissions restrictions
system.cpu.itb.readAccesses                         0                       # DTB read accesses
system.cpu.itb.writeAccesses                        0                       # DTB write accesses
system.cpu.itb.instAccesses                         0                       # ITB inst accesses
system.cpu.itb.hits                                 0                       # Total TLB (inst and data) hits
system.cpu.itb.misses                               0                       # Total TLB (inst and data) misses
system.cpu.itb.accesses                             0                       # Total TLB (inst and data) accesses
system.cpu.itb.walker.walks                         0                       # Table walker walks requested
system.cpu.itb.walker.requestOrigin_Requested::Data            0                       # Table walker requests started/completed, data/inst
system.cpu.itb.walker.requestOrigin_Requested::Inst            0                       # Table walker requests started/completed, data/inst
system.cpu.itb.walker.requestOrigin_Requested::total            0                       # Table walker requests started/completed, data/inst
system.cpu.itb.walker.requestOrigin_Completed::Data            0                       # Table walker requests started/completed, data/inst
system.cpu.itb.walker.requestOrigin_Completed::Inst            0                       # Table walker requests started/completed, data/inst
system.cpu.itb.walker.requestOrigin_Completed::total            0                       # Table walker requests started/completed, data/inst
system.cpu.itb.walker.requestOrigin::total            0                       # Table walker requests started/completed, data/inst
system.cpu.itb.walker.power_state.pwrStateResidencyTicks::UNDEFINED  82273108500                       # Cumulative time (in ticks) in various power states
system.cpu.itb.stage2_mmu.stage2_tlb.instHits            0                       # ITB inst hits
system.cpu.itb.stage2_mmu.stage2_tlb.instMisses            0                       # ITB inst misses
system.cpu.itb.stage2_mmu.stage2_tlb.readHits            0                       # DTB read hits
system.cpu.itb.stage2_mmu.stage2_tlb.readMisses            0                       # DTB read misses
system.cpu.itb.stage2_mmu.stage2_tlb.writeHits            0                       # DTB write hits
system.cpu.itb.stage2_mmu.stage2_tlb.writeMisses            0                       # DTB write misses
system.cpu.itb.stage2_mmu.stage2_tlb.inserts            0                       # Number of times an entry is inserted into the TLB
system.cpu.itb.stage2_mmu.stage2_tlb.flushTlb            0                       # Number of times complete TLB was flushed
system.cpu.itb.stage2_mmu.stage2_tlb.flushTlbMva            0                       # Number of times TLB was flushed by MVA
system.cpu.itb.stage2_mmu.stage2_tlb.flushTlbMvaAsid            0                       # Number of times TLB was flushed by MVA & ASID
system.cpu.itb.stage2_mmu.stage2_tlb.flushTlbAsid            0                       # Number of times TLB was flushed by ASID
system.cpu.itb.stage2_mmu.stage2_tlb.flushedEntries            0                       # Number of entries that have been flushed from TLB
system.cpu.itb.stage2_mmu.stage2_tlb.alignFaults            0                       # Number of TLB faults due to alignment restrictions
system.cpu.itb.stage2_mmu.stage2_tlb.prefetchFaults            0                       # Number of TLB faults due to prefetch
system.cpu.itb.stage2_mmu.stage2_tlb.domainFaults            0                       # Number of TLB faults due to domain restrictions
system.cpu.itb.stage2_mmu.stage2_tlb.permsFaults            0                       # Number of TLB faults due to permissions restrictions
system.cpu.itb.stage2_mmu.stage2_tlb.readAccesses            0                       # DTB read accesses
system.cpu.itb.stage2_mmu.stage2_tlb.writeAccesses            0                       # DTB write accesses
system.cpu.itb.stage2_mmu.stage2_tlb.instAccesses            0                       # ITB inst accesses
system.cpu.itb.stage2_mmu.stage2_tlb.hits            0                       # Total TLB (inst and data) hits
system.cpu.itb.stage2_mmu.stage2_tlb.misses            0                       # Total TLB (inst and data) misses
system.cpu.itb.stage2_mmu.stage2_tlb.accesses            0                       # Total TLB (inst and data) accesses
system.cpu.itb.stage2_mmu.stage2_tlb.walker.walks            0                       # Table walker walks requested
system.cpu.itb.stage2_mmu.stage2_tlb.walker.requestOrigin_Requested::Data            0                       # Table walker requests started/completed, data/inst
system.cpu.itb.stage2_mmu.stage2_tlb.walker.requestOrigin_Requested::Inst            0                       # Table walker requests started/completed, data/inst
system.cpu.itb.stage2_mmu.stage2_tlb.walker.requestOrigin_Requested::total            0                       # Table walker requests started/completed, data/inst
system.cpu.itb.stage2_mmu.stage2_tlb.walker.requestOrigin_Completed::Data            0                       # Table walker requests started/completed, data/inst
system.cpu.itb.stage2_mmu.stage2_tlb.walker.requestOrigin_Completed::Inst            0                       # Table walker requests started/completed, data/inst
system.cpu.itb.stage2_mmu.stage2_tlb.walker.requestOrigin_Completed::total            0                       # Table walker requests started/completed, data/inst
system.cpu.itb.stage2_mmu.stage2_tlb.walker.requestOrigin::total            0                       # Table walker requests started/completed, data/inst
system.cpu.itb.stage2_mmu.stage2_tlb.walker.power_state.pwrStateResidencyTicks::UNDEFINED  82273108500                       # Cumulative time (in ticks) in various power states

---------- End Simulation Statistics   ----------
