
---------- Begin Simulation Statistics ----------
final_tick                               516321461500                       # Number of ticks from beginning of simulation (restored from checkpoints and never reset)
host_inst_rate                                  66978                       # Simulator instruction rate (inst/s)
host_mem_usage                                 721448                       # Number of bytes of host memory used
host_op_rate                                   123712                       # Simulator op (including micro ops) rate (op/s)
host_seconds                                  1493.03                       # Real time elapsed on the host
host_tick_rate                              345820688                       # Simulator tick rate (ticks/s)
sim_freq                                 1000000000000                       # Frequency of simulated ticks
sim_insts                                   100000001                       # Number of instructions simulated
sim_ops                                     184705555                       # Number of ops (including micro ops) simulated
sim_seconds                                  0.516321                       # Number of seconds simulated
sim_ticks                                516321461500                       # Number of ticks simulated
system.cpu.committedInsts                   100000001                       # Number of instructions committed
system.cpu.committedOps                     184705555                       # Number of ops (including micro ops) committed
system.cpu.cpi                              10.326429                       # CPI: cycles per instruction
system.cpu.discardedOps                          4129                       # Number of ops (including micro ops) which were discarded before commit
system.cpu.idleCycles                       810798787                       # Total number of cycles that the object has spent stopped
system.cpu.ipc                               0.096839                       # IPC: instructions per cycle
system.cpu.numCycles                       1032642923                       # number of cpu cycles simulated
system.cpu.numFetchSuspends                         0                       # Number of times Execute suspended instruction fetching
system.cpu.numWorkItemsCompleted                    0                       # number of work items this cpu completed
system.cpu.numWorkItemsStarted                      0                       # number of work items this cpu started
system.cpu.op_class_0::No_OpClass                   0      0.00%      0.00% # Class of committed instruction
system.cpu.op_class_0::IntAlu                98412611     53.28%     53.28% # Class of committed instruction
system.cpu.op_class_0::IntMult                 114661      0.06%     53.34% # Class of committed instruction
system.cpu.op_class_0::IntDiv                       0      0.00%     53.34% # Class of committed instruction
system.cpu.op_class_0::FloatAdd                     0      0.00%     53.34% # Class of committed instruction
system.cpu.op_class_0::FloatCmp                     0      0.00%     53.34% # Class of committed instruction
system.cpu.op_class_0::FloatCvt                     0      0.00%     53.34% # Class of committed instruction
system.cpu.op_class_0::FloatMult                    0      0.00%     53.34% # Class of committed instruction
system.cpu.op_class_0::FloatMultAcc                 0      0.00%     53.34% # Class of committed instruction
system.cpu.op_class_0::FloatDiv                     0      0.00%     53.34% # Class of committed instruction
system.cpu.op_class_0::FloatMisc                    0      0.00%     53.34% # Class of committed instruction
system.cpu.op_class_0::FloatSqrt                    0      0.00%     53.34% # Class of committed instruction
system.cpu.op_class_0::SimdAdd                      0      0.00%     53.34% # Class of committed instruction
system.cpu.op_class_0::SimdAddAcc                   0      0.00%     53.34% # Class of committed instruction
system.cpu.op_class_0::SimdAlu                      0      0.00%     53.34% # Class of committed instruction
system.cpu.op_class_0::SimdCmp                      0      0.00%     53.34% # Class of committed instruction
system.cpu.op_class_0::SimdCvt                      0      0.00%     53.34% # Class of committed instruction
system.cpu.op_class_0::SimdMisc                     0      0.00%     53.34% # Class of committed instruction
system.cpu.op_class_0::SimdMult                     0      0.00%     53.34% # Class of committed instruction
system.cpu.op_class_0::SimdMultAcc                  0      0.00%     53.34% # Class of committed instruction
system.cpu.op_class_0::SimdShift                    0      0.00%     53.34% # Class of committed instruction
system.cpu.op_class_0::SimdShiftAcc                 0      0.00%     53.34% # Class of committed instruction
system.cpu.op_class_0::SimdDiv                      0      0.00%     53.34% # Class of committed instruction
system.cpu.op_class_0::SimdSqrt                     0      0.00%     53.34% # Class of committed instruction
system.cpu.op_class_0::SimdFloatAdd                 0      0.00%     53.34% # Class of committed instruction
system.cpu.op_class_0::SimdFloatAlu                 0      0.00%     53.34% # Class of committed instruction
system.cpu.op_class_0::SimdFloatCmp                 0      0.00%     53.34% # Class of committed instruction
system.cpu.op_class_0::SimdFloatCvt                 0      0.00%     53.34% # Class of committed instruction
system.cpu.op_class_0::SimdFloatDiv                 0      0.00%     53.34% # Class of committed instruction
system.cpu.op_class_0::SimdFloatMisc                1      0.00%     53.34% # Class of committed instruction
system.cpu.op_class_0::SimdFloatMult                0      0.00%     53.34% # Class of committed instruction
system.cpu.op_class_0::SimdFloatMultAcc             0      0.00%     53.34% # Class of committed instruction
system.cpu.op_class_0::SimdFloatSqrt                0      0.00%     53.34% # Class of committed instruction
system.cpu.op_class_0::SimdReduceAdd                0      0.00%     53.34% # Class of committed instruction
system.cpu.op_class_0::SimdReduceAlu                0      0.00%     53.34% # Class of committed instruction
system.cpu.op_class_0::SimdReduceCmp                0      0.00%     53.34% # Class of committed instruction
system.cpu.op_class_0::SimdFloatReduceAdd            0      0.00%     53.34% # Class of committed instruction
system.cpu.op_class_0::SimdFloatReduceCmp            0      0.00%     53.34% # Class of committed instruction
system.cpu.op_class_0::SimdAes                      0      0.00%     53.34% # Class of committed instruction
system.cpu.op_class_0::SimdAesMix                   0      0.00%     53.34% # Class of committed instruction
system.cpu.op_class_0::SimdSha1Hash                 0      0.00%     53.34% # Class of committed instruction
system.cpu.op_class_0::SimdSha1Hash2                0      0.00%     53.34% # Class of committed instruction
system.cpu.op_class_0::SimdSha256Hash               0      0.00%     53.34% # Class of committed instruction
system.cpu.op_class_0::SimdSha256Hash2              0      0.00%     53.34% # Class of committed instruction
system.cpu.op_class_0::SimdShaSigma2                0      0.00%     53.34% # Class of committed instruction
system.cpu.op_class_0::SimdShaSigma3                0      0.00%     53.34% # Class of committed instruction
system.cpu.op_class_0::SimdPredAlu                  0      0.00%     53.34% # Class of committed instruction
system.cpu.op_class_0::MemRead                1307944      0.71%     54.05% # Class of committed instruction
system.cpu.op_class_0::MemWrite              84870338     45.95%    100.00% # Class of committed instruction
system.cpu.op_class_0::FloatMemRead                 0      0.00%    100.00% # Class of committed instruction
system.cpu.op_class_0::FloatMemWrite                0      0.00%    100.00% # Class of committed instruction
system.cpu.op_class_0::IprAccess                    0      0.00%    100.00% # Class of committed instruction
system.cpu.op_class_0::InstPrefetch                 0      0.00%    100.00% # Class of committed instruction
system.cpu.op_class_0::total                184705555                       # Class of committed instruction
system.cpu.tickCycles                       221844136                       # Number of cycles that the object actually ticked
system.cpu.workload.numSyscalls                    19                       # Number of system calls
system.membus.snoop_filter.hit_multi_requests            0                       # Number of requests hitting in the snoop filter with multiple (>1) holders of the requested data.
system.membus.snoop_filter.hit_multi_snoops            0                       # Number of snoops hitting in the snoop filter with multiple (>1) holders of the requested data.
system.membus.snoop_filter.hit_single_requests      5277305                       # Number of requests hitting in the snoop filter with a single holder of the requested data.
system.membus.snoop_filter.hit_single_snoops            0                       # Number of snoops hitting in the snoop filter with a single holder of the requested data.
system.membus.snoop_filter.tot_requests      10571400                       # Total number of requests made to the snoop filter.
system.membus.snoop_filter.tot_snoops               0                       # Total number of snoops made to the snoop filter.
system.tol2bus.snoop_filter.hit_multi_requests           31                       # Number of requests hitting in the snoop filter with multiple (>1) holders of the requested data.
system.tol2bus.snoop_filter.hit_multi_snoops            0                       # Number of snoops hitting in the snoop filter with multiple (>1) holders of the requested data.
system.tol2bus.snoop_filter.hit_single_requests      5292745                       # Number of requests hitting in the snoop filter with a single holder of the requested data.
system.tol2bus.snoop_filter.hit_single_snoops          521                       # Number of snoops hitting in the snoop filter with a single holder of the requested data.
system.tol2bus.snoop_filter.tot_requests     10586923                       # Total number of requests made to the snoop filter.
system.tol2bus.snoop_filter.tot_snoops            521                       # Total number of snoops made to the snoop filter.
system.membus.trans_dist::ReadResp                768                       # Transaction distribution
system.membus.trans_dist::WritebackDirty      5276977                       # Transaction distribution
system.membus.trans_dist::CleanEvict              326                       # Transaction distribution
system.membus.trans_dist::ReadExReq           5293329                       # Transaction distribution
system.membus.trans_dist::ReadExResp          5293329                       # Transaction distribution
system.membus.trans_dist::ReadSharedReq           768                       # Transaction distribution
system.membus.pkt_count_system.l2.mem_side_port::system.mem_ctrls.port     15865497                       # Packet count per connected requestor and responder (bytes)
system.membus.pkt_count::total               15865497                       # Packet count per connected requestor and responder (bytes)
system.membus.pkt_size_system.l2.mem_side_port::system.mem_ctrls.port    676548736                       # Cumulative packet size per connected requestor and responder (bytes)
system.membus.pkt_size::total               676548736                       # Cumulative packet size per connected requestor and responder (bytes)
system.membus.snoops                                0                       # Total snoops (count)
system.membus.snoopTraffic                          0                       # Total snoop traffic (bytes)
system.membus.snoop_fanout::samples           5294097                       # Request fanout histogram
system.membus.snoop_fanout::mean                    0                       # Request fanout histogram
system.membus.snoop_fanout::stdev                   0                       # Request fanout histogram
system.membus.snoop_fanout::underflows              0      0.00%      0.00% # Request fanout histogram
system.membus.snoop_fanout::0                 5294097    100.00%    100.00% # Request fanout histogram
system.membus.snoop_fanout::1                       0      0.00%    100.00% # Request fanout histogram
system.membus.snoop_fanout::overflows               0      0.00%    100.00% # Request fanout histogram
system.membus.snoop_fanout::min_value               0                       # Request fanout histogram
system.membus.snoop_fanout::max_value               0                       # Request fanout histogram
system.membus.snoop_fanout::total             5294097                       # Request fanout histogram
system.membus.reqLayer0.occupancy         31702746500                       # Layer occupancy (ticks)
system.membus.reqLayer0.utilization               6.1                       # Layer utilization (%)
system.membus.respLayer1.occupancy        27844775250                       # Layer occupancy (ticks)
system.membus.respLayer1.utilization              5.4                       # Layer utilization (%)
system.membus.power_state.pwrStateResidencyTicks::UNDEFINED 516321461500                       # Cumulative time (in ticks) in various power states
system.tol2bus.trans_dist::ReadResp               839                       # Transaction distribution
system.tol2bus.trans_dist::WritebackDirty     10569337                       # Transaction distribution
system.tol2bus.trans_dist::WritebackClean          204                       # Transaction distribution
system.tol2bus.trans_dist::CleanEvict            1028                       # Transaction distribution
system.tol2bus.trans_dist::ReadExReq          5293339                       # Transaction distribution
system.tol2bus.trans_dist::ReadExResp         5293338                       # Transaction distribution
system.tol2bus.trans_dist::ReadCleanReq           612                       # Transaction distribution
system.tol2bus.trans_dist::ReadSharedReq          227                       # Transaction distribution
system.tol2bus.pkt_count_system.cpu.icache.mem_side_port::system.l2.cpu_side_port         1428                       # Packet count per connected requestor and responder (bytes)
system.tol2bus.pkt_count_system.cpu.dcache.mem_side_port::system.l2.cpu_side_port     15879672                       # Packet count per connected requestor and responder (bytes)
system.tol2bus.pkt_count::total              15881100                       # Packet count per connected requestor and responder (bytes)
system.tol2bus.pkt_size_system.cpu.icache.mem_side_port::system.l2.cpu_side_port        52224                       # Cumulative packet size per connected requestor and responder (bytes)
system.tol2bus.pkt_size_system.cpu.dcache.mem_side_port::system.l2.cpu_side_port    677499200                       # Cumulative packet size per connected requestor and responder (bytes)
system.tol2bus.pkt_size::total              677551424                       # Cumulative packet size per connected requestor and responder (bytes)
system.tol2bus.snoops                         5277824                       # Total snoops (count)
system.tol2bus.snoopTraffic                 337726528                       # Total snoop traffic (bytes)
system.tol2bus.snoop_fanout::samples         10572002                       # Request fanout histogram
system.tol2bus.snoop_fanout::mean            0.000052                       # Request fanout histogram
system.tol2bus.snoop_fanout::stdev           0.007226                       # Request fanout histogram
system.tol2bus.snoop_fanout::underflows             0      0.00%      0.00% # Request fanout histogram
system.tol2bus.snoop_fanout::0               10571450     99.99%     99.99% # Request fanout histogram
system.tol2bus.snoop_fanout::1                    552      0.01%    100.00% # Request fanout histogram
system.tol2bus.snoop_fanout::2                      0      0.00%    100.00% # Request fanout histogram
system.tol2bus.snoop_fanout::overflows              0      0.00%    100.00% # Request fanout histogram
system.tol2bus.snoop_fanout::min_value              0                       # Request fanout histogram
system.tol2bus.snoop_fanout::max_value              1                       # Request fanout histogram
system.tol2bus.snoop_fanout::total           10572002                       # Request fanout histogram
system.tol2bus.reqLayer0.occupancy        10586025500                       # Layer occupancy (ticks)
system.tol2bus.reqLayer0.utilization              2.1                       # Layer utilization (%)
system.tol2bus.respLayer1.occupancy        7940350494                       # Layer occupancy (ticks)
system.tol2bus.respLayer1.utilization             1.5                       # Layer utilization (%)
system.tol2bus.respLayer0.occupancy            918000                       # Layer occupancy (ticks)
system.tol2bus.respLayer0.utilization             0.0                       # Layer utilization (%)
system.tol2bus.power_state.pwrStateResidencyTicks::UNDEFINED 516321461500                       # Cumulative time (in ticks) in various power states
system.voltage_domain.voltage                       1                       # Voltage in Volts
system.clk_domain.clock                          1000                       # Clock period in ticks
system.l2.demand_hits::.cpu.inst                   33                       # number of demand (read+write) hits
system.l2.demand_hits::.cpu.data                   41                       # number of demand (read+write) hits
system.l2.demand_hits::total                       74                       # number of demand (read+write) hits
system.l2.overall_hits::.cpu.inst                  33                       # number of overall hits
system.l2.overall_hits::.cpu.data                  41                       # number of overall hits
system.l2.overall_hits::total                      74                       # number of overall hits
system.l2.demand_misses::.cpu.inst                579                       # number of demand (read+write) misses
system.l2.demand_misses::.cpu.data            5293525                       # number of demand (read+write) misses
system.l2.demand_misses::total                5294104                       # number of demand (read+write) misses
system.l2.overall_misses::.cpu.inst               579                       # number of overall misses
system.l2.overall_misses::.cpu.data           5293525                       # number of overall misses
system.l2.overall_misses::total               5294104                       # number of overall misses
system.l2.demand_miss_latency::.cpu.inst     46353500                       # number of demand (read+write) miss cycles
system.l2.demand_miss_latency::.cpu.data 426599261500                       # number of demand (read+write) miss cycles
system.l2.demand_miss_latency::total     426645615000                       # number of demand (read+write) miss cycles
system.l2.overall_miss_latency::.cpu.inst     46353500                       # number of overall miss cycles
system.l2.overall_miss_latency::.cpu.data 426599261500                       # number of overall miss cycles
system.l2.overall_miss_latency::total    426645615000                       # number of overall miss cycles
system.l2.demand_accesses::.cpu.inst              612                       # number of demand (read+write) accesses
system.l2.demand_accesses::.cpu.data          5293566                       # number of demand (read+write) accesses
system.l2.demand_accesses::total              5294178                       # number of demand (read+write) accesses
system.l2.overall_accesses::.cpu.inst             612                       # number of overall (read+write) accesses
system.l2.overall_accesses::.cpu.data         5293566                       # number of overall (read+write) accesses
system.l2.overall_accesses::total             5294178                       # number of overall (read+write) accesses
system.l2.demand_miss_rate::.cpu.inst        0.946078                       # miss rate for demand accesses
system.l2.demand_miss_rate::.cpu.data        0.999992                       # miss rate for demand accesses
system.l2.demand_miss_rate::total            0.999986                       # miss rate for demand accesses
system.l2.overall_miss_rate::.cpu.inst       0.946078                       # miss rate for overall accesses
system.l2.overall_miss_rate::.cpu.data       0.999992                       # miss rate for overall accesses
system.l2.overall_miss_rate::total           0.999986                       # miss rate for overall accesses
system.l2.demand_avg_miss_latency::.cpu.inst 80057.858377                       # average overall miss latency
system.l2.demand_avg_miss_latency::.cpu.data 80588.881983                       # average overall miss latency
system.l2.demand_avg_miss_latency::total 80588.823907                       # average overall miss latency
system.l2.overall_avg_miss_latency::.cpu.inst 80057.858377                       # average overall miss latency
system.l2.overall_avg_miss_latency::.cpu.data 80588.881983                       # average overall miss latency
system.l2.overall_avg_miss_latency::total 80588.823907                       # average overall miss latency
system.l2.blocked_cycles::no_mshrs                  0                       # number of cycles access was blocked
system.l2.blocked_cycles::no_targets                0                       # number of cycles access was blocked
system.l2.blocked::no_mshrs                         0                       # number of cycles access was blocked
system.l2.blocked::no_targets                       0                       # number of cycles access was blocked
system.l2.avg_blocked_cycles::no_mshrs            nan                       # average number of cycles each access was blocked
system.l2.avg_blocked_cycles::no_targets          nan                       # average number of cycles each access was blocked
system.l2.writebacks::.writebacks             5276977                       # number of writebacks
system.l2.writebacks::total                   5276977                       # number of writebacks
system.l2.demand_mshr_hits::.cpu.data               6                       # number of demand (read+write) MSHR hits
system.l2.demand_mshr_hits::total                   6                       # number of demand (read+write) MSHR hits
system.l2.overall_mshr_hits::.cpu.data              6                       # number of overall MSHR hits
system.l2.overall_mshr_hits::total                  6                       # number of overall MSHR hits
system.l2.demand_mshr_misses::.cpu.inst           579                       # number of demand (read+write) MSHR misses
system.l2.demand_mshr_misses::.cpu.data       5293519                       # number of demand (read+write) MSHR misses
system.l2.demand_mshr_misses::total           5294098                       # number of demand (read+write) MSHR misses
system.l2.overall_mshr_misses::.cpu.inst          579                       # number of overall MSHR misses
system.l2.overall_mshr_misses::.cpu.data      5293519                       # number of overall MSHR misses
system.l2.overall_mshr_misses::total          5294098                       # number of overall MSHR misses
system.l2.demand_mshr_miss_latency::.cpu.inst     40563500                       # number of demand (read+write) MSHR miss cycles
system.l2.demand_mshr_miss_latency::.cpu.data 373663675000                       # number of demand (read+write) MSHR miss cycles
system.l2.demand_mshr_miss_latency::total 373704238500                       # number of demand (read+write) MSHR miss cycles
system.l2.overall_mshr_miss_latency::.cpu.inst     40563500                       # number of overall MSHR miss cycles
system.l2.overall_mshr_miss_latency::.cpu.data 373663675000                       # number of overall MSHR miss cycles
system.l2.overall_mshr_miss_latency::total 373704238500                       # number of overall MSHR miss cycles
system.l2.demand_mshr_miss_rate::.cpu.inst     0.946078                       # mshr miss rate for demand accesses
system.l2.demand_mshr_miss_rate::.cpu.data     0.999991                       # mshr miss rate for demand accesses
system.l2.demand_mshr_miss_rate::total       0.999985                       # mshr miss rate for demand accesses
system.l2.overall_mshr_miss_rate::.cpu.inst     0.946078                       # mshr miss rate for overall accesses
system.l2.overall_mshr_miss_rate::.cpu.data     0.999991                       # mshr miss rate for overall accesses
system.l2.overall_mshr_miss_rate::total      0.999985                       # mshr miss rate for overall accesses
system.l2.demand_avg_mshr_miss_latency::.cpu.inst 70057.858377                       # average overall mshr miss latency
system.l2.demand_avg_mshr_miss_latency::.cpu.data 70588.898425                       # average overall mshr miss latency
system.l2.demand_avg_mshr_miss_latency::total 70588.840346                       # average overall mshr miss latency
system.l2.overall_avg_mshr_miss_latency::.cpu.inst 70057.858377                       # average overall mshr miss latency
system.l2.overall_avg_mshr_miss_latency::.cpu.data 70588.898425                       # average overall mshr miss latency
system.l2.overall_avg_mshr_miss_latency::total 70588.840346                       # average overall mshr miss latency
system.l2.replacements                        5277824                       # number of replacements
system.l2.WritebackDirty_hits::.writebacks      5292360                       # number of WritebackDirty hits
system.l2.WritebackDirty_hits::total          5292360                       # number of WritebackDirty hits
system.l2.WritebackDirty_accesses::.writebacks      5292360                       # number of WritebackDirty accesses(hits+misses)
system.l2.WritebackDirty_accesses::total      5292360                       # number of WritebackDirty accesses(hits+misses)
system.l2.WritebackClean_hits::.writebacks          203                       # number of WritebackClean hits
system.l2.WritebackClean_hits::total              203                       # number of WritebackClean hits
system.l2.WritebackClean_accesses::.writebacks          203                       # number of WritebackClean accesses(hits+misses)
system.l2.WritebackClean_accesses::total          203                       # number of WritebackClean accesses(hits+misses)
system.l2.ReadExReq_hits::.cpu.data                 9                       # number of ReadExReq hits
system.l2.ReadExReq_hits::total                     9                       # number of ReadExReq hits
system.l2.ReadExReq_misses::.cpu.data         5293330                       # number of ReadExReq misses
system.l2.ReadExReq_misses::total             5293330                       # number of ReadExReq misses
system.l2.ReadExReq_miss_latency::.cpu.data 426583317000                       # number of ReadExReq miss cycles
system.l2.ReadExReq_miss_latency::total  426583317000                       # number of ReadExReq miss cycles
system.l2.ReadExReq_accesses::.cpu.data       5293339                       # number of ReadExReq accesses(hits+misses)
system.l2.ReadExReq_accesses::total           5293339                       # number of ReadExReq accesses(hits+misses)
system.l2.ReadExReq_miss_rate::.cpu.data     0.999998                       # miss rate for ReadExReq accesses
system.l2.ReadExReq_miss_rate::total         0.999998                       # miss rate for ReadExReq accesses
system.l2.ReadExReq_avg_miss_latency::.cpu.data 80588.838595                       # average ReadExReq miss latency
system.l2.ReadExReq_avg_miss_latency::total 80588.838595                       # average ReadExReq miss latency
system.l2.ReadExReq_mshr_misses::.cpu.data      5293330                       # number of ReadExReq MSHR misses
system.l2.ReadExReq_mshr_misses::total        5293330                       # number of ReadExReq MSHR misses
system.l2.ReadExReq_mshr_miss_latency::.cpu.data 373650027000                       # number of ReadExReq MSHR miss cycles
system.l2.ReadExReq_mshr_miss_latency::total 373650027000                       # number of ReadExReq MSHR miss cycles
system.l2.ReadExReq_mshr_miss_rate::.cpu.data     0.999998                       # mshr miss rate for ReadExReq accesses
system.l2.ReadExReq_mshr_miss_rate::total     0.999998                       # mshr miss rate for ReadExReq accesses
system.l2.ReadExReq_avg_mshr_miss_latency::.cpu.data 70588.840484                       # average ReadExReq mshr miss latency
system.l2.ReadExReq_avg_mshr_miss_latency::total 70588.840484                       # average ReadExReq mshr miss latency
system.l2.ReadCleanReq_hits::.cpu.inst             33                       # number of ReadCleanReq hits
system.l2.ReadCleanReq_hits::total                 33                       # number of ReadCleanReq hits
system.l2.ReadCleanReq_misses::.cpu.inst          579                       # number of ReadCleanReq misses
system.l2.ReadCleanReq_misses::total              579                       # number of ReadCleanReq misses
system.l2.ReadCleanReq_miss_latency::.cpu.inst     46353500                       # number of ReadCleanReq miss cycles
system.l2.ReadCleanReq_miss_latency::total     46353500                       # number of ReadCleanReq miss cycles
system.l2.ReadCleanReq_accesses::.cpu.inst          612                       # number of ReadCleanReq accesses(hits+misses)
system.l2.ReadCleanReq_accesses::total            612                       # number of ReadCleanReq accesses(hits+misses)
system.l2.ReadCleanReq_miss_rate::.cpu.inst     0.946078                       # miss rate for ReadCleanReq accesses
system.l2.ReadCleanReq_miss_rate::total      0.946078                       # miss rate for ReadCleanReq accesses
system.l2.ReadCleanReq_avg_miss_latency::.cpu.inst 80057.858377                       # average ReadCleanReq miss latency
system.l2.ReadCleanReq_avg_miss_latency::total 80057.858377                       # average ReadCleanReq miss latency
system.l2.ReadCleanReq_mshr_misses::.cpu.inst          579                       # number of ReadCleanReq MSHR misses
system.l2.ReadCleanReq_mshr_misses::total          579                       # number of ReadCleanReq MSHR misses
system.l2.ReadCleanReq_mshr_miss_latency::.cpu.inst     40563500                       # number of ReadCleanReq MSHR miss cycles
system.l2.ReadCleanReq_mshr_miss_latency::total     40563500                       # number of ReadCleanReq MSHR miss cycles
system.l2.ReadCleanReq_mshr_miss_rate::.cpu.inst     0.946078                       # mshr miss rate for ReadCleanReq accesses
system.l2.ReadCleanReq_mshr_miss_rate::total     0.946078                       # mshr miss rate for ReadCleanReq accesses
system.l2.ReadCleanReq_avg_mshr_miss_latency::.cpu.inst 70057.858377                       # average ReadCleanReq mshr miss latency
system.l2.ReadCleanReq_avg_mshr_miss_latency::total 70057.858377                       # average ReadCleanReq mshr miss latency
system.l2.ReadSharedReq_hits::.cpu.data            32                       # number of ReadSharedReq hits
system.l2.ReadSharedReq_hits::total                32                       # number of ReadSharedReq hits
system.l2.ReadSharedReq_misses::.cpu.data          195                       # number of ReadSharedReq misses
system.l2.ReadSharedReq_misses::total             195                       # number of ReadSharedReq misses
system.l2.ReadSharedReq_miss_latency::.cpu.data     15944500                       # number of ReadSharedReq miss cycles
system.l2.ReadSharedReq_miss_latency::total     15944500                       # number of ReadSharedReq miss cycles
system.l2.ReadSharedReq_accesses::.cpu.data          227                       # number of ReadSharedReq accesses(hits+misses)
system.l2.ReadSharedReq_accesses::total           227                       # number of ReadSharedReq accesses(hits+misses)
system.l2.ReadSharedReq_miss_rate::.cpu.data     0.859031                       # miss rate for ReadSharedReq accesses
system.l2.ReadSharedReq_miss_rate::total     0.859031                       # miss rate for ReadSharedReq accesses
system.l2.ReadSharedReq_avg_miss_latency::.cpu.data 81766.666667                       # average ReadSharedReq miss latency
system.l2.ReadSharedReq_avg_miss_latency::total 81766.666667                       # average ReadSharedReq miss latency
system.l2.ReadSharedReq_mshr_hits::.cpu.data            6                       # number of ReadSharedReq MSHR hits
system.l2.ReadSharedReq_mshr_hits::total            6                       # number of ReadSharedReq MSHR hits
system.l2.ReadSharedReq_mshr_misses::.cpu.data          189                       # number of ReadSharedReq MSHR misses
system.l2.ReadSharedReq_mshr_misses::total          189                       # number of ReadSharedReq MSHR misses
system.l2.ReadSharedReq_mshr_miss_latency::.cpu.data     13648000                       # number of ReadSharedReq MSHR miss cycles
system.l2.ReadSharedReq_mshr_miss_latency::total     13648000                       # number of ReadSharedReq MSHR miss cycles
system.l2.ReadSharedReq_mshr_miss_rate::.cpu.data     0.832599                       # mshr miss rate for ReadSharedReq accesses
system.l2.ReadSharedReq_mshr_miss_rate::total     0.832599                       # mshr miss rate for ReadSharedReq accesses
system.l2.ReadSharedReq_avg_mshr_miss_latency::.cpu.data 72211.640212                       # average ReadSharedReq mshr miss latency
system.l2.ReadSharedReq_avg_mshr_miss_latency::total 72211.640212                       # average ReadSharedReq mshr miss latency
system.l2.power_state.pwrStateResidencyTicks::UNDEFINED 516321461500                       # Cumulative time (in ticks) in various power states
system.l2.tags.tagsinuse                 16300.799299                       # Cycle average of tags in use
system.l2.tags.total_refs                    10586885                       # Total number of references to valid blocks.
system.l2.tags.sampled_refs                   5294208                       # Sample count of references to valid blocks.
system.l2.tags.avg_refs                      1.999711                       # Average number of references to valid blocks.
system.l2.tags.warmup_cycle                     77000                       # Cycle when the warmup percentage was hit.
system.l2.tags.occ_blocks::.writebacks       0.308478                       # Average occupied blocks per requestor
system.l2.tags.occ_blocks::.cpu.inst         2.921107                       # Average occupied blocks per requestor
system.l2.tags.occ_blocks::.cpu.data     16297.569714                       # Average occupied blocks per requestor
system.l2.tags.occ_percent::.writebacks      0.000019                       # Average percentage of cache occupancy
system.l2.tags.occ_percent::.cpu.inst        0.000178                       # Average percentage of cache occupancy
system.l2.tags.occ_percent::.cpu.data        0.994725                       # Average percentage of cache occupancy
system.l2.tags.occ_percent::total            0.994922                       # Average percentage of cache occupancy
system.l2.tags.occ_task_id_blocks::1024         16384                       # Occupied blocks per task id
system.l2.tags.age_task_id_blocks_1024::0          103                       # Occupied blocks per task id
system.l2.tags.age_task_id_blocks_1024::1          929                       # Occupied blocks per task id
system.l2.tags.age_task_id_blocks_1024::2         9268                       # Occupied blocks per task id
system.l2.tags.age_task_id_blocks_1024::3         6084                       # Occupied blocks per task id
system.l2.tags.occ_task_id_percent::1024            1                       # Percentage of cache occupancy per task id
system.l2.tags.tag_accesses                  89989344                       # Number of tag accesses
system.l2.tags.data_accesses                 89989344                       # Number of data accesses
system.l2.tags.power_state.pwrStateResidencyTicks::UNDEFINED 516321461500                       # Cumulative time (in ticks) in various power states
system.cpu_voltage_domain.voltage                   1                       # Voltage in Volts
system.mem_ctrls.avgPriority_.writebacks::samples   5276977.00                       # Average QoS priority value for accepted requests
system.mem_ctrls.avgPriority_.cpu.inst::samples       579.00                       # Average QoS priority value for accepted requests
system.mem_ctrls.avgPriority_.cpu.data::samples   5293518.00                       # Average QoS priority value for accepted requests
system.mem_ctrls.priorityMinLatency      0.000000018750                       # per QoS priority minimum request to response latency (s)
system.mem_ctrls.priorityMaxLatency      0.000392506500                       # per QoS priority maximum request to response latency (s)
system.mem_ctrls.numReadWriteTurnArounds       329764                       # Number of turnarounds from READ to WRITE
system.mem_ctrls.numWriteReadTurnArounds       329764                       # Number of turnarounds from WRITE to READ
system.mem_ctrls.numStayReadState            15657324                       # Number of times bus staying in READ state
system.mem_ctrls.numStayWriteState            4956860                       # Number of times bus staying in WRITE state
system.mem_ctrls.readReqs                     5294097                       # Number of read requests accepted
system.mem_ctrls.writeReqs                    5276977                       # Number of write requests accepted
system.mem_ctrls.readBursts                   5294097                       # Number of controller read bursts, including those serviced by the write queue
system.mem_ctrls.writeBursts                  5276977                       # Number of controller write bursts, including those merged in the write queue
system.mem_ctrls.servicedByWrQ                      0                       # Number of controller read bursts serviced by the write queue
system.mem_ctrls.mergedWrBursts                     0                       # Number of controller write bursts merged with an existing one
system.mem_ctrls.neitherReadNorWriteReqs            0                       # Number of requests that are neither read nor write
system.mem_ctrls.avgRdQLen                       1.00                       # Average read queue length when enqueuing
system.mem_ctrls.avgWrQLen                      25.92                       # Average write queue length when enqueuing
system.mem_ctrls.numRdRetry                         0                       # Number of times read queue was full causing retry
system.mem_ctrls.numWrRetry                         0                       # Number of times write queue was full causing retry
system.mem_ctrls.readPktSize::0                     0                       # Read request sizes (log2)
system.mem_ctrls.readPktSize::1                     0                       # Read request sizes (log2)
system.mem_ctrls.readPktSize::2                     0                       # Read request sizes (log2)
system.mem_ctrls.readPktSize::3                     0                       # Read request sizes (log2)
system.mem_ctrls.readPktSize::4                     0                       # Read request sizes (log2)
system.mem_ctrls.readPktSize::5                     0                       # Read request sizes (log2)
system.mem_ctrls.readPktSize::6               5294097                       # Read request sizes (log2)
system.mem_ctrls.writePktSize::0                    0                       # Write request sizes (log2)
system.mem_ctrls.writePktSize::1                    0                       # Write request sizes (log2)
system.mem_ctrls.writePktSize::2                    0                       # Write request sizes (log2)
system.mem_ctrls.writePktSize::3                    0                       # Write request sizes (log2)
system.mem_ctrls.writePktSize::4                    0                       # Write request sizes (log2)
system.mem_ctrls.writePktSize::5                    0                       # Write request sizes (log2)
system.mem_ctrls.writePktSize::6              5276977                       # Write request sizes (log2)
system.mem_ctrls.rdQLenPdf::0                 5293215                       # What read queue length does an incoming req see
system.mem_ctrls.rdQLenPdf::1                     853                       # What read queue length does an incoming req see
system.mem_ctrls.rdQLenPdf::2                      26                       # What read queue length does an incoming req see
system.mem_ctrls.rdQLenPdf::3                       3                       # What read queue length does an incoming req see
system.mem_ctrls.rdQLenPdf::4                       0                       # What read queue length does an incoming req see
system.mem_ctrls.rdQLenPdf::5                       0                       # What read queue length does an incoming req see
system.mem_ctrls.rdQLenPdf::6                       0                       # What read queue length does an incoming req see
system.mem_ctrls.rdQLenPdf::7                       0                       # What read queue length does an incoming req see
system.mem_ctrls.rdQLenPdf::8                       0                       # What read queue length does an incoming req see
system.mem_ctrls.rdQLenPdf::9                       0                       # What read queue length does an incoming req see
system.mem_ctrls.rdQLenPdf::10                      0                       # What read queue length does an incoming req see
system.mem_ctrls.rdQLenPdf::11                      0                       # What read queue length does an incoming req see
system.mem_ctrls.rdQLenPdf::12                      0                       # What read queue length does an incoming req see
system.mem_ctrls.rdQLenPdf::13                      0                       # What read queue length does an incoming req see
system.mem_ctrls.rdQLenPdf::14                      0                       # What read queue length does an incoming req see
system.mem_ctrls.rdQLenPdf::15                      0                       # What read queue length does an incoming req see
system.mem_ctrls.rdQLenPdf::16                      0                       # What read queue length does an incoming req see
system.mem_ctrls.rdQLenPdf::17                      0                       # What read queue length does an incoming req see
system.mem_ctrls.rdQLenPdf::18                      0                       # What read queue length does an incoming req see
system.mem_ctrls.rdQLenPdf::19                      0                       # What read queue length does an incoming req see
system.mem_ctrls.rdQLenPdf::20                      0                       # What read queue length does an incoming req see
system.mem_ctrls.rdQLenPdf::21                      0                       # What read queue length does an incoming req see
system.mem_ctrls.rdQLenPdf::22                      0                       # What read queue length does an incoming req see
system.mem_ctrls.rdQLenPdf::23                      0                       # What read queue length does an incoming req see
system.mem_ctrls.rdQLenPdf::24                      0                       # What read queue length does an incoming req see
system.mem_ctrls.rdQLenPdf::25                      0                       # What read queue length does an incoming req see
system.mem_ctrls.rdQLenPdf::26                      0                       # What read queue length does an incoming req see
system.mem_ctrls.rdQLenPdf::27                      0                       # What read queue length does an incoming req see
system.mem_ctrls.rdQLenPdf::28                      0                       # What read queue length does an incoming req see
system.mem_ctrls.rdQLenPdf::29                      0                       # What read queue length does an incoming req see
system.mem_ctrls.rdQLenPdf::30                      0                       # What read queue length does an incoming req see
system.mem_ctrls.rdQLenPdf::31                      0                       # What read queue length does an incoming req see
system.mem_ctrls.wrQLenPdf::0                       1                       # What write queue length does an incoming req see
system.mem_ctrls.wrQLenPdf::1                       1                       # What write queue length does an incoming req see
system.mem_ctrls.wrQLenPdf::2                       1                       # What write queue length does an incoming req see
system.mem_ctrls.wrQLenPdf::3                       1                       # What write queue length does an incoming req see
system.mem_ctrls.wrQLenPdf::4                       1                       # What write queue length does an incoming req see
system.mem_ctrls.wrQLenPdf::5                       1                       # What write queue length does an incoming req see
system.mem_ctrls.wrQLenPdf::6                       1                       # What write queue length does an incoming req see
system.mem_ctrls.wrQLenPdf::7                       1                       # What write queue length does an incoming req see
system.mem_ctrls.wrQLenPdf::8                       1                       # What write queue length does an incoming req see
system.mem_ctrls.wrQLenPdf::9                       1                       # What write queue length does an incoming req see
system.mem_ctrls.wrQLenPdf::10                      1                       # What write queue length does an incoming req see
system.mem_ctrls.wrQLenPdf::11                      1                       # What write queue length does an incoming req see
system.mem_ctrls.wrQLenPdf::12                      1                       # What write queue length does an incoming req see
system.mem_ctrls.wrQLenPdf::13                      1                       # What write queue length does an incoming req see
system.mem_ctrls.wrQLenPdf::14                      1                       # What write queue length does an incoming req see
system.mem_ctrls.wrQLenPdf::15                    247                       # What write queue length does an incoming req see
system.mem_ctrls.wrQLenPdf::16                    247                       # What write queue length does an incoming req see
system.mem_ctrls.wrQLenPdf::17                 327547                       # What write queue length does an incoming req see
system.mem_ctrls.wrQLenPdf::18                 329759                       # What write queue length does an incoming req see
system.mem_ctrls.wrQLenPdf::19                 329765                       # What write queue length does an incoming req see
system.mem_ctrls.wrQLenPdf::20                 329768                       # What write queue length does an incoming req see
system.mem_ctrls.wrQLenPdf::21                 329765                       # What write queue length does an incoming req see
system.mem_ctrls.wrQLenPdf::22                 329765                       # What write queue length does an incoming req see
system.mem_ctrls.wrQLenPdf::23                 329780                       # What write queue length does an incoming req see
system.mem_ctrls.wrQLenPdf::24                 329769                       # What write queue length does an incoming req see
system.mem_ctrls.wrQLenPdf::25                 332197                       # What write queue length does an incoming req see
system.mem_ctrls.wrQLenPdf::26                 329764                       # What write queue length does an incoming req see
system.mem_ctrls.wrQLenPdf::27                 329765                       # What write queue length does an incoming req see
system.mem_ctrls.wrQLenPdf::28                 329765                       # What write queue length does an incoming req see
system.mem_ctrls.wrQLenPdf::29                 329764                       # What write queue length does an incoming req see
system.mem_ctrls.wrQLenPdf::30                 329765                       # What write queue length does an incoming req see
system.mem_ctrls.wrQLenPdf::31                 329766                       # What write queue length does an incoming req see
system.mem_ctrls.wrQLenPdf::32                 329764                       # What write queue length does an incoming req see
system.mem_ctrls.wrQLenPdf::33                      0                       # What write queue length does an incoming req see
system.mem_ctrls.wrQLenPdf::34                      0                       # What write queue length does an incoming req see
system.mem_ctrls.wrQLenPdf::35                      0                       # What write queue length does an incoming req see
system.mem_ctrls.wrQLenPdf::36                      0                       # What write queue length does an incoming req see
system.mem_ctrls.wrQLenPdf::37                      0                       # What write queue length does an incoming req see
system.mem_ctrls.wrQLenPdf::38                      0                       # What write queue length does an incoming req see
system.mem_ctrls.wrQLenPdf::39                      0                       # What write queue length does an incoming req see
system.mem_ctrls.wrQLenPdf::40                      0                       # What write queue length does an incoming req see
system.mem_ctrls.wrQLenPdf::41                      0                       # What write queue length does an incoming req see
system.mem_ctrls.wrQLenPdf::42                      0                       # What write queue length does an incoming req see
system.mem_ctrls.wrQLenPdf::43                      0                       # What write queue length does an incoming req see
system.mem_ctrls.wrQLenPdf::44                      0                       # What write queue length does an incoming req see
system.mem_ctrls.wrQLenPdf::45                      0                       # What write queue length does an incoming req see
system.mem_ctrls.wrQLenPdf::46                      0                       # What write queue length does an incoming req see
system.mem_ctrls.wrQLenPdf::47                      0                       # What write queue length does an incoming req see
system.mem_ctrls.wrQLenPdf::48                      0                       # What write queue length does an incoming req see
system.mem_ctrls.wrQLenPdf::49                      0                       # What write queue length does an incoming req see
system.mem_ctrls.wrQLenPdf::50                      0                       # What write queue length does an incoming req see
system.mem_ctrls.wrQLenPdf::51                      0                       # What write queue length does an incoming req see
system.mem_ctrls.wrQLenPdf::52                      0                       # What write queue length does an incoming req see
system.mem_ctrls.wrQLenPdf::53                      0                       # What write queue length does an incoming req see
system.mem_ctrls.wrQLenPdf::54                      0                       # What write queue length does an incoming req see
system.mem_ctrls.wrQLenPdf::55                      0                       # What write queue length does an incoming req see
system.mem_ctrls.wrQLenPdf::56                      0                       # What write queue length does an incoming req see
system.mem_ctrls.wrQLenPdf::57                      0                       # What write queue length does an incoming req see
system.mem_ctrls.wrQLenPdf::58                      0                       # What write queue length does an incoming req see
system.mem_ctrls.wrQLenPdf::59                      0                       # What write queue length does an incoming req see
system.mem_ctrls.wrQLenPdf::60                      0                       # What write queue length does an incoming req see
system.mem_ctrls.wrQLenPdf::61                      0                       # What write queue length does an incoming req see
system.mem_ctrls.wrQLenPdf::62                      0                       # What write queue length does an incoming req see
system.mem_ctrls.wrQLenPdf::63                      0                       # What write queue length does an incoming req see
system.mem_ctrls.rdPerTurnAround::samples       329764                       # Reads before turning the bus around for writes
system.mem_ctrls.rdPerTurnAround::mean      16.054196                       # Reads before turning the bus around for writes
system.mem_ctrls.rdPerTurnAround::gmean     16.005252                       # Reads before turning the bus around for writes
system.mem_ctrls.rdPerTurnAround::stdev     23.516258                       # Reads before turning the bus around for writes
system.mem_ctrls.rdPerTurnAround::0-511        329761    100.00%    100.00% # Reads before turning the bus around for writes
system.mem_ctrls.rdPerTurnAround::512-1023            2      0.00%    100.00% # Reads before turning the bus around for writes
system.mem_ctrls.rdPerTurnAround::13312-13823            1      0.00%    100.00% # Reads before turning the bus around for writes
system.mem_ctrls.rdPerTurnAround::total        329764                       # Reads before turning the bus around for writes
system.mem_ctrls.wrPerTurnAround::samples       329764                       # Writes before turning the bus around for reads
system.mem_ctrls.wrPerTurnAround::mean      16.002229                       # Writes before turning the bus around for reads
system.mem_ctrls.wrPerTurnAround::gmean     16.002043                       # Writes before turning the bus around for reads
system.mem_ctrls.wrPerTurnAround::stdev      0.081630                       # Writes before turning the bus around for reads
system.mem_ctrls.wrPerTurnAround::16           329518     99.93%     99.93% # Writes before turning the bus around for reads
system.mem_ctrls.wrPerTurnAround::18                3      0.00%     99.93% # Writes before turning the bus around for reads
system.mem_ctrls.wrPerTurnAround::19              243      0.07%    100.00% # Writes before turning the bus around for reads
system.mem_ctrls.wrPerTurnAround::total        329764                       # Writes before turning the bus around for reads
system.mem_ctrls.bytesReadWrQ                       0                       # Total number of bytes read from write queue
system.mem_ctrls.bytesReadSys               338822208                       # Total read bytes from the system interface side
system.mem_ctrls.bytesWrittenSys            337726528                       # Total written bytes from the system interface side
system.mem_ctrls.avgRdBWSys                    656.22                       # Average system read bandwidth in MiByte/s
system.mem_ctrls.avgWrBWSys                    654.10                       # Average system write bandwidth in MiByte/s
system.mem_ctrls.totGap                  516321430000                       # Total gap between requests
system.mem_ctrls.avgGap                      48842.85                       # Average gap between requests
system.mem_ctrls.requestorReadBytes::.cpu.inst        37056                       # Per-requestor bytes read from memory
system.mem_ctrls.requestorReadBytes::.cpu.data    338785152                       # Per-requestor bytes read from memory
system.mem_ctrls.requestorWriteBytes::.writebacks    337725376                       # Per-requestor bytes write to memory
system.mem_ctrls.requestorReadRate::.cpu.inst 71769.242154579697                       # Per-requestor bytes read from memory rate (Bytes/sec)
system.mem_ctrls.requestorReadRate::.cpu.data 656151597.912999033928                       # Per-requestor bytes read from memory rate (Bytes/sec)
system.mem_ctrls.requestorWriteRate::.writebacks 654099047.168892502785                       # Per-requestor bytes write to memory rate (Bytes/sec)
system.mem_ctrls.requestorReadAccesses::.cpu.inst          579                       # Per-requestor read serviced memory accesses
system.mem_ctrls.requestorReadAccesses::.cpu.data      5293518                       # Per-requestor read serviced memory accesses
system.mem_ctrls.requestorWriteAccesses::.writebacks      5276977                       # Per-requestor write serviced memory accesses
system.mem_ctrls.requestorReadTotalLat::.cpu.inst     16842750                       # Per-requestor read total memory access latency
system.mem_ctrls.requestorReadTotalLat::.cpu.data 157878666250                       # Per-requestor read total memory access latency
system.mem_ctrls.requestorWriteTotalLat::.writebacks 12665330397000                       # Per-requestor write total memory access latency
system.mem_ctrls.requestorReadAvgLat::.cpu.inst     29089.38                       # Per-requestor read average memory access latency
system.mem_ctrls.requestorReadAvgLat::.cpu.data     29824.90                       # Per-requestor read average memory access latency
system.mem_ctrls.requestorWriteAvgLat::.writebacks   2400110.97                       # Per-requestor write average memory access latency
system.mem_ctrls.dram.bytes_read::.cpu.inst        37056                       # Number of bytes read from this memory
system.mem_ctrls.dram.bytes_read::.cpu.data    338785152                       # Number of bytes read from this memory
system.mem_ctrls.dram.bytes_read::total     338822208                       # Number of bytes read from this memory
system.mem_ctrls.dram.bytes_inst_read::.cpu.inst        37056                       # Number of instructions bytes read from this memory
system.mem_ctrls.dram.bytes_inst_read::total        37056                       # Number of instructions bytes read from this memory
system.mem_ctrls.dram.bytes_written::.writebacks    337726528                       # Number of bytes written to this memory
system.mem_ctrls.dram.bytes_written::total    337726528                       # Number of bytes written to this memory
system.mem_ctrls.dram.num_reads::.cpu.inst          579                       # Number of read requests responded to by this memory
system.mem_ctrls.dram.num_reads::.cpu.data      5293518                       # Number of read requests responded to by this memory
system.mem_ctrls.dram.num_reads::total        5294097                       # Number of read requests responded to by this memory
system.mem_ctrls.dram.num_writes::.writebacks      5276977                       # Number of write requests responded to by this memory
system.mem_ctrls.dram.num_writes::total       5276977                       # Number of write requests responded to by this memory
system.mem_ctrls.dram.bw_read::.cpu.inst        71769                       # Total read bandwidth from this memory (bytes/s)
system.mem_ctrls.dram.bw_read::.cpu.data    656151598                       # Total read bandwidth from this memory (bytes/s)
system.mem_ctrls.dram.bw_read::total        656223367                       # Total read bandwidth from this memory (bytes/s)
system.mem_ctrls.dram.bw_inst_read::.cpu.inst        71769                       # Instruction read bandwidth from this memory (bytes/s)
system.mem_ctrls.dram.bw_inst_read::total        71769                       # Instruction read bandwidth from this memory (bytes/s)
system.mem_ctrls.dram.bw_write::.writebacks    654101278                       # Write bandwidth from this memory (bytes/s)
system.mem_ctrls.dram.bw_write::total       654101278                       # Write bandwidth from this memory (bytes/s)
system.mem_ctrls.dram.bw_total::.writebacks    654101278                       # Total bandwidth to/from this memory (bytes/s)
system.mem_ctrls.dram.bw_total::.cpu.inst        71769                       # Total bandwidth to/from this memory (bytes/s)
system.mem_ctrls.dram.bw_total::.cpu.data    656151598                       # Total bandwidth to/from this memory (bytes/s)
system.mem_ctrls.dram.bw_total::total      1310324645                       # Total bandwidth to/from this memory (bytes/s)
system.mem_ctrls.dram.readBursts              5294097                       # Number of DRAM read bursts
system.mem_ctrls.dram.writeBursts             5276959                       # Number of DRAM write bursts
system.mem_ctrls.dram.perBankRdBursts::0       330853                       # Per bank write bursts
system.mem_ctrls.dram.perBankRdBursts::1       330877                       # Per bank write bursts
system.mem_ctrls.dram.perBankRdBursts::2       331021                       # Per bank write bursts
system.mem_ctrls.dram.perBankRdBursts::3       330919                       # Per bank write bursts
system.mem_ctrls.dram.perBankRdBursts::4       331021                       # Per bank write bursts
system.mem_ctrls.dram.perBankRdBursts::5       330985                       # Per bank write bursts
system.mem_ctrls.dram.perBankRdBursts::6       331005                       # Per bank write bursts
system.mem_ctrls.dram.perBankRdBursts::7       330774                       # Per bank write bursts
system.mem_ctrls.dram.perBankRdBursts::8       330795                       # Per bank write bursts
system.mem_ctrls.dram.perBankRdBursts::9       330787                       # Per bank write bursts
system.mem_ctrls.dram.perBankRdBursts::10       330848                       # Per bank write bursts
system.mem_ctrls.dram.perBankRdBursts::11       330896                       # Per bank write bursts
system.mem_ctrls.dram.perBankRdBursts::12       330900                       # Per bank write bursts
system.mem_ctrls.dram.perBankRdBursts::13       330824                       # Per bank write bursts
system.mem_ctrls.dram.perBankRdBursts::14       330855                       # Per bank write bursts
system.mem_ctrls.dram.perBankRdBursts::15       330737                       # Per bank write bursts
system.mem_ctrls.dram.perBankWrBursts::0       329743                       # Per bank write bursts
system.mem_ctrls.dram.perBankWrBursts::1       329788                       # Per bank write bursts
system.mem_ctrls.dram.perBankWrBursts::2       329944                       # Per bank write bursts
system.mem_ctrls.dram.perBankWrBursts::3       329856                       # Per bank write bursts
system.mem_ctrls.dram.perBankWrBursts::4       329920                       # Per bank write bursts
system.mem_ctrls.dram.perBankWrBursts::5       329920                       # Per bank write bursts
system.mem_ctrls.dram.perBankWrBursts::6       329901                       # Per bank write bursts
system.mem_ctrls.dram.perBankWrBursts::7       329730                       # Per bank write bursts
system.mem_ctrls.dram.perBankWrBursts::8       329728                       # Per bank write bursts
system.mem_ctrls.dram.perBankWrBursts::9       329728                       # Per bank write bursts
system.mem_ctrls.dram.perBankWrBursts::10       329758                       # Per bank write bursts
system.mem_ctrls.dram.perBankWrBursts::11       329846                       # Per bank write bursts
system.mem_ctrls.dram.perBankWrBursts::12       329861                       # Per bank write bursts
system.mem_ctrls.dram.perBankWrBursts::13       329782                       # Per bank write bursts
system.mem_ctrls.dram.perBankWrBursts::14       329806                       # Per bank write bursts
system.mem_ctrls.dram.perBankWrBursts::15       329648                       # Per bank write bursts
system.mem_ctrls.dram.totQLat             58631190250                       # Total ticks spent queuing
system.mem_ctrls.dram.totBusLat           26470485000                       # Total ticks spent in databus transfers
system.mem_ctrls.dram.totMemAccLat       157895509000                       # Total ticks spent from burst creation until serviced by the DRAM
system.mem_ctrls.dram.avgQLat                11074.82                       # Average queueing delay per DRAM burst
system.mem_ctrls.dram.avgBusLat               5000.00                       # Average bus latency per DRAM burst
system.mem_ctrls.dram.avgMemAccLat           29824.82                       # Average memory access latency per DRAM burst
system.mem_ctrls.dram.readRowHits             4862762                       # Number of row buffer hits during reads
system.mem_ctrls.dram.writeRowHits            4901264                       # Number of row buffer hits during writes
system.mem_ctrls.dram.readRowHitRate            91.85                       # Row buffer hit rate for reads
system.mem_ctrls.dram.writeRowHitRate           92.88                       # Row buffer hit rate for writes
system.mem_ctrls.dram.bytesPerActivate::samples       807028                       # Bytes accessed per row activation
system.mem_ctrls.dram.bytesPerActivate::mean   838.319126                       # Bytes accessed per row activation
system.mem_ctrls.dram.bytesPerActivate::gmean   726.022892                       # Bytes accessed per row activation
system.mem_ctrls.dram.bytesPerActivate::stdev   303.437617                       # Bytes accessed per row activation
system.mem_ctrls.dram.bytesPerActivate::0-127        26228      3.25%      3.25% # Bytes accessed per row activation
system.mem_ctrls.dram.bytesPerActivate::128-255        37607      4.66%      7.91% # Bytes accessed per row activation
system.mem_ctrls.dram.bytesPerActivate::256-383        32467      4.02%     11.93% # Bytes accessed per row activation
system.mem_ctrls.dram.bytesPerActivate::384-511        40619      5.03%     16.97% # Bytes accessed per row activation
system.mem_ctrls.dram.bytesPerActivate::512-639        41996      5.20%     22.17% # Bytes accessed per row activation
system.mem_ctrls.dram.bytesPerActivate::640-767        34940      4.33%     26.50% # Bytes accessed per row activation
system.mem_ctrls.dram.bytesPerActivate::768-895        26417      3.27%     29.77% # Bytes accessed per row activation
system.mem_ctrls.dram.bytesPerActivate::896-1023        41139      5.10%     34.87% # Bytes accessed per row activation
system.mem_ctrls.dram.bytesPerActivate::1024-1151       525615     65.13%    100.00% # Bytes accessed per row activation
system.mem_ctrls.dram.bytesPerActivate::total       807028                       # Bytes accessed per row activation
system.mem_ctrls.dram.bytesRead             338822208                       # Total number of bytes read from DRAM
system.mem_ctrls.dram.bytesWritten          337725376                       # Total number of bytes written to DRAM
system.mem_ctrls.dram.avgRdBW              656.223367                       # Average DRAM read bandwidth in MiBytes/s
system.mem_ctrls.dram.avgWrBW              654.099047                       # Average DRAM write bandwidth in MiBytes/s
system.mem_ctrls.dram.peakBW                 12800.00                       # Theoretical peak bandwidth in MiByte/s
system.mem_ctrls.dram.busUtil                   10.24                       # Data bus utilization in percentage
system.mem_ctrls.dram.busUtilRead                5.13                       # Data bus utilization in percentage for reads
system.mem_ctrls.dram.busUtilWrite               5.11                       # Data bus utilization in percentage for writes
system.mem_ctrls.dram.pageHitRate               92.37                       # Row buffer hit rate, read and write combined
system.mem_ctrls.dram.rank1.actEnergy      2879833320                       # Energy for activate commands per rank (pJ)
system.mem_ctrls.dram.rank1.preEnergy      1530660120                       # Energy for precharge commands per rank (pJ)
system.mem_ctrls.dram.rank1.readEnergy    18897023880                       # Energy for read commands per rank (pJ)
system.mem_ctrls.dram.rank1.writeEnergy   13771179540                       # Energy for write commands per rank (pJ)
system.mem_ctrls.dram.rank1.refreshEnergy 40757393040.000008                       # Energy for refresh commands per rank (pJ)
system.mem_ctrls.dram.rank1.actBackEnergy 123743184990                       # Energy for active background per rank (pJ)
system.mem_ctrls.dram.rank1.preBackEnergy  94062654240                       # Energy for precharge background per rank (pJ)
system.mem_ctrls.dram.rank1.actPowerDownEnergy            0                       # Energy for active power-down per rank (pJ)
system.mem_ctrls.dram.rank1.prePowerDownEnergy            0                       # Energy for precharge power-down per rank (pJ)
system.mem_ctrls.dram.rank1.selfRefreshEnergy            0                       # Energy for self refresh per rank (pJ)
system.mem_ctrls.dram.rank1.totalEnergy  295641929130                       # Total energy per rank (pJ)
system.mem_ctrls.dram.rank1.averagePower   572.592757                       # Core power per rank (mW)
system.mem_ctrls.dram.rank1.totalIdleTime            0                       # Total Idle time Per DRAM Rank
system.mem_ctrls.dram.rank1.pwrStateTime::IDLE 240708877250                       # Time in different power states
system.mem_ctrls.dram.rank1.pwrStateTime::REF  17240860000                       # Time in different power states
system.mem_ctrls.dram.rank1.pwrStateTime::SREF            0                       # Time in different power states
system.mem_ctrls.dram.rank1.pwrStateTime::PRE_PDN            0                       # Time in different power states
system.mem_ctrls.dram.rank1.pwrStateTime::ACT 258371724250                       # Time in different power states
system.mem_ctrls.dram.rank1.pwrStateTime::ACT_PDN            0                       # Time in different power states
system.mem_ctrls.dram.rank0.actEnergy      2882360880                       # Energy for activate commands per rank (pJ)
system.mem_ctrls.dram.rank0.preEnergy      1532011140                       # Energy for precharge commands per rank (pJ)
system.mem_ctrls.dram.rank0.readEnergy    18902828700                       # Energy for read commands per rank (pJ)
system.mem_ctrls.dram.rank0.writeEnergy   13774546440                       # Energy for write commands per rank (pJ)
system.mem_ctrls.dram.rank0.refreshEnergy 40757393040.000008                       # Energy for refresh commands per rank (pJ)
system.mem_ctrls.dram.rank0.actBackEnergy 123633654360                       # Energy for active background per rank (pJ)
system.mem_ctrls.dram.rank0.preBackEnergy  94154890560                       # Energy for precharge background per rank (pJ)
system.mem_ctrls.dram.rank0.actPowerDownEnergy            0                       # Energy for active power-down per rank (pJ)
system.mem_ctrls.dram.rank0.prePowerDownEnergy            0                       # Energy for precharge power-down per rank (pJ)
system.mem_ctrls.dram.rank0.selfRefreshEnergy            0                       # Energy for self refresh per rank (pJ)
system.mem_ctrls.dram.rank0.totalEnergy  295637685120                       # Total energy per rank (pJ)
system.mem_ctrls.dram.rank0.averagePower   572.584537                       # Core power per rank (mW)
system.mem_ctrls.dram.rank0.totalIdleTime            0                       # Total Idle time Per DRAM Rank
system.mem_ctrls.dram.rank0.pwrStateTime::IDLE 240949056750                       # Time in different power states
system.mem_ctrls.dram.rank0.pwrStateTime::REF  17240860000                       # Time in different power states
system.mem_ctrls.dram.rank0.pwrStateTime::SREF            0                       # Time in different power states
system.mem_ctrls.dram.rank0.pwrStateTime::PRE_PDN            0                       # Time in different power states
system.mem_ctrls.dram.rank0.pwrStateTime::ACT 258131544750                       # Time in different power states
system.mem_ctrls.dram.rank0.pwrStateTime::ACT_PDN            0                       # Time in different power states
system.mem_ctrls.dram.power_state.pwrStateResidencyTicks::UNDEFINED 516321461500                       # Cumulative time (in ticks) in various power states
system.mem_ctrls.power_state.pwrStateResidencyTicks::UNDEFINED 516321461500                       # Cumulative time (in ticks) in various power states
system.cpu_clk_domain.clock                       500                       # Clock period in ticks
system.cpu.icache.demand_hits::.cpu.inst     32340865                       # number of demand (read+write) hits
system.cpu.icache.demand_hits::total         32340865                       # number of demand (read+write) hits
system.cpu.icache.overall_hits::.cpu.inst     32340865                       # number of overall hits
system.cpu.icache.overall_hits::total        32340865                       # number of overall hits
system.cpu.icache.demand_misses::.cpu.inst          612                       # number of demand (read+write) misses
system.cpu.icache.demand_misses::total            612                       # number of demand (read+write) misses
system.cpu.icache.overall_misses::.cpu.inst          612                       # number of overall misses
system.cpu.icache.overall_misses::total           612                       # number of overall misses
system.cpu.icache.demand_miss_latency::.cpu.inst     48236000                       # number of demand (read+write) miss cycles
system.cpu.icache.demand_miss_latency::total     48236000                       # number of demand (read+write) miss cycles
system.cpu.icache.overall_miss_latency::.cpu.inst     48236000                       # number of overall miss cycles
system.cpu.icache.overall_miss_latency::total     48236000                       # number of overall miss cycles
system.cpu.icache.demand_accesses::.cpu.inst     32341477                       # number of demand (read+write) accesses
system.cpu.icache.demand_accesses::total     32341477                       # number of demand (read+write) accesses
system.cpu.icache.overall_accesses::.cpu.inst     32341477                       # number of overall (read+write) accesses
system.cpu.icache.overall_accesses::total     32341477                       # number of overall (read+write) accesses
system.cpu.icache.demand_miss_rate::.cpu.inst     0.000019                       # miss rate for demand accesses
system.cpu.icache.demand_miss_rate::total     0.000019                       # miss rate for demand accesses
system.cpu.icache.overall_miss_rate::.cpu.inst     0.000019                       # miss rate for overall accesses
system.cpu.icache.overall_miss_rate::total     0.000019                       # miss rate for overall accesses
system.cpu.icache.demand_avg_miss_latency::.cpu.inst 78816.993464                       # average overall miss latency
system.cpu.icache.demand_avg_miss_latency::total 78816.993464                       # average overall miss latency
system.cpu.icache.overall_avg_miss_latency::.cpu.inst 78816.993464                       # average overall miss latency
system.cpu.icache.overall_avg_miss_latency::total 78816.993464                       # average overall miss latency
system.cpu.icache.blocked_cycles::no_mshrs            0                       # number of cycles access was blocked
system.cpu.icache.blocked_cycles::no_targets            0                       # number of cycles access was blocked
system.cpu.icache.blocked::no_mshrs                 0                       # number of cycles access was blocked
system.cpu.icache.blocked::no_targets               0                       # number of cycles access was blocked
system.cpu.icache.avg_blocked_cycles::no_mshrs          nan                       # average number of cycles each access was blocked
system.cpu.icache.avg_blocked_cycles::no_targets          nan                       # average number of cycles each access was blocked
system.cpu.icache.writebacks::.writebacks          204                       # number of writebacks
system.cpu.icache.writebacks::total               204                       # number of writebacks
system.cpu.icache.demand_mshr_misses::.cpu.inst          612                       # number of demand (read+write) MSHR misses
system.cpu.icache.demand_mshr_misses::total          612                       # number of demand (read+write) MSHR misses
system.cpu.icache.overall_mshr_misses::.cpu.inst          612                       # number of overall MSHR misses
system.cpu.icache.overall_mshr_misses::total          612                       # number of overall MSHR misses
system.cpu.icache.demand_mshr_miss_latency::.cpu.inst     47624000                       # number of demand (read+write) MSHR miss cycles
system.cpu.icache.demand_mshr_miss_latency::total     47624000                       # number of demand (read+write) MSHR miss cycles
system.cpu.icache.overall_mshr_miss_latency::.cpu.inst     47624000                       # number of overall MSHR miss cycles
system.cpu.icache.overall_mshr_miss_latency::total     47624000                       # number of overall MSHR miss cycles
system.cpu.icache.demand_mshr_miss_rate::.cpu.inst     0.000019                       # mshr miss rate for demand accesses
system.cpu.icache.demand_mshr_miss_rate::total     0.000019                       # mshr miss rate for demand accesses
system.cpu.icache.overall_mshr_miss_rate::.cpu.inst     0.000019                       # mshr miss rate for overall accesses
system.cpu.icache.overall_mshr_miss_rate::total     0.000019                       # mshr miss rate for overall accesses
system.cpu.icache.demand_avg_mshr_miss_latency::.cpu.inst 77816.993464                       # average overall mshr miss latency
system.cpu.icache.demand_avg_mshr_miss_latency::total 77816.993464                       # average overall mshr miss latency
system.cpu.icache.overall_avg_mshr_miss_latency::.cpu.inst 77816.993464                       # average overall mshr miss latency
system.cpu.icache.overall_avg_mshr_miss_latency::total 77816.993464                       # average overall mshr miss latency
system.cpu.icache.replacements                    204                       # number of replacements
system.cpu.icache.ReadReq_hits::.cpu.inst     32340865                       # number of ReadReq hits
system.cpu.icache.ReadReq_hits::total        32340865                       # number of ReadReq hits
system.cpu.icache.ReadReq_misses::.cpu.inst          612                       # number of ReadReq misses
system.cpu.icache.ReadReq_misses::total           612                       # number of ReadReq misses
system.cpu.icache.ReadReq_miss_latency::.cpu.inst     48236000                       # number of ReadReq miss cycles
system.cpu.icache.ReadReq_miss_latency::total     48236000                       # number of ReadReq miss cycles
system.cpu.icache.ReadReq_accesses::.cpu.inst     32341477                       # number of ReadReq accesses(hits+misses)
system.cpu.icache.ReadReq_accesses::total     32341477                       # number of ReadReq accesses(hits+misses)
system.cpu.icache.ReadReq_miss_rate::.cpu.inst     0.000019                       # miss rate for ReadReq accesses
[...]
system.cpu.dcache.ReadReq_mshr_miss_rate::.cpu.data     0.000156                       # mshr miss rate for ReadReq accesses
system.cpu.dcache.ReadReq_mshr_miss_rate::total     0.000156                       # mshr miss rate for ReadReq accesses
system.cpu.dcache.ReadReq_avg_mshr_miss_latency::.cpu.data 72613.636364                       # average ReadReq mshr miss latency
system.cpu.dcache.ReadReq_avg_mshr_miss_latency::total 72613.636364                       # average ReadReq mshr miss latency
system.cpu.dcache.WriteReq_hits::.cpu.data     74241828                       # number of WriteReq hits
system.cpu.dcache.WriteReq_hits::total       74241828                       # number of WriteReq hits
system.cpu.dcache.WriteReq_misses::.cpu.data     10584207                       # number of WriteReq misses
system.cpu.dcache.WriteReq_misses::total     10584207                       # number of WriteReq misses
system.cpu.dcache.WriteReq_miss_latency::.cpu.data 882060395499                       # number of WriteReq miss cycles
system.cpu.dcache.WriteReq_miss_latency::total 882060395499                       # number of WriteReq miss cycles
system.cpu.dcache.WriteReq_accesses::.cpu.data     84826035                       # number of WriteReq accesses(hits+misses)
system.cpu.dcache.WriteReq_accesses::total     84826035                       # number of WriteReq accesses(hits+misses)
system.cpu.dcache.WriteReq_miss_rate::.cpu.data     0.124775                       # miss rate for WriteReq accesses
system.cpu.dcache.WriteReq_miss_rate::total     0.124775                       # miss rate for WriteReq accesses
system.cpu.dcache.WriteReq_avg_miss_latency::.cpu.data 83337.409737                       # average WriteReq miss latency
system.cpu.dcache.WriteReq_avg_miss_latency::total 83337.409737                       # average WriteReq miss latency
system.cpu.dcache.WriteReq_mshr_hits::.cpu.data      5290868                       # number of WriteReq MSHR hits
system.cpu.dcache.WriteReq_mshr_hits::total      5290868                       # number of WriteReq MSHR hits
system.cpu.dcache.WriteReq_mshr_misses::.cpu.data      5293339                       # number of WriteReq MSHR misses
system.cpu.dcache.WriteReq_mshr_misses::total      5293339                       # number of WriteReq MSHR misses
system.cpu.dcache.WriteReq_mshr_miss_latency::.cpu.data 434523421000                       # number of WriteReq MSHR miss cycles
system.cpu.dcache.WriteReq_mshr_miss_latency::total 434523421000                       # number of WriteReq MSHR miss cycles
system.cpu.dcache.WriteReq_mshr_miss_rate::.cpu.data     0.062402                       # mshr miss rate for WriteReq accesses
system.cpu.dcache.WriteReq_mshr_miss_rate::total     0.062402                       # mshr miss rate for WriteReq accesses
system.cpu.dcache.WriteReq_avg_mshr_miss_latency::.cpu.data 82088.719615                       # average WriteReq mshr miss latency
system.cpu.dcache.WriteReq_avg_mshr_miss_latency::total 82088.719615                       # average WriteReq mshr miss latency
system.cpu.dcache.SoftPFReq_hits::.cpu.data           18                       # number of SoftPFReq hits
system.cpu.dcache.SoftPFReq_hits::total            18                       # number of SoftPFReq hits
system.cpu.dcache.SoftPFReq_misses::.cpu.data           33                       # number of SoftPFReq misses
system.cpu.dcache.SoftPFReq_misses::total           33                       # number of SoftPFReq misses
system.cpu.dcache.SoftPFReq_accesses::.cpu.data           51                       # number of SoftPFReq accesses(hits+misses)
system.cpu.dcache.SoftPFReq_accesses::total           51                       # number of SoftPFReq accesses(hits+misses)
system.cpu.dcache.SoftPFReq_miss_rate::.cpu.data     0.647059                       # miss rate for SoftPFReq accesses
system.cpu.dcache.SoftPFReq_miss_rate::total     0.647059                       # miss rate for SoftPFReq accesses
system.cpu.dcache.SoftPFReq_mshr_misses::.cpu.data           28                       # number of SoftPFReq MSHR misses
system.cpu.dcache.SoftPFReq_mshr_misses::total           28                       # number of SoftPFReq MSHR misses
system.cpu.dcache.SoftPFReq_mshr_miss_latency::.cpu.data      2195000                       # number of SoftPFReq MSHR miss cycles
system.cpu.dcache.SoftPFReq_mshr_miss_latency::total      2195000                       # number of SoftPFReq MSHR miss cycles
system.cpu.dcache.SoftPFReq_mshr_miss_rate::.cpu.data     0.549020                       # mshr miss rate for SoftPFReq accesses
system.cpu.dcache.SoftPFReq_mshr_miss_rate::total     0.549020                       # mshr miss rate for SoftPFReq accesses
system.cpu.dcache.SoftPFReq_avg_mshr_miss_latency::.cpu.data 78392.857143                       # average SoftPFReq mshr miss latency
system.cpu.dcache.SoftPFReq_avg_mshr_miss_latency::total 78392.857143                       # average SoftPFReq mshr miss latency
system.cpu.dcache.LoadLockedReq_hits::.cpu.data           50                       # number of LoadLockedReq hits
system.cpu.dcache.LoadLockedReq_hits::total           50                       # number of LoadLockedReq hits
system.cpu.dcache.LoadLockedReq_misses::.cpu.data            1                       # number of LoadLockedReq misses
system.cpu.dcache.LoadLockedReq_misses::total            1                       # number of LoadLockedReq misses
system.cpu.dcache.LoadLockedReq_miss_latency::.cpu.data        74500                       # number of LoadLockedReq miss cycles
system.cpu.dcache.LoadLockedReq_miss_latency::total        74500                       # number of LoadLockedReq miss cycles
system.cpu.dcache.LoadLockedReq_accesses::.cpu.data           51                       # number of LoadLockedReq accesses(hits+misses)
system.cpu.dcache.LoadLockedReq_accesses::total           51                       # number of LoadLockedReq accesses(hits+misses)
system.cpu.dcache.LoadLockedReq_miss_rate::.cpu.data     0.019608                       # miss rate for LoadLockedReq accesses
system.cpu.dcache.LoadLockedReq_miss_rate::total     0.019608                       # miss rate for LoadLockedReq accesses
system.cpu.dcache.LoadLockedReq_avg_miss_latency::.cpu.data        74500                       # average LoadLockedReq miss latency
system.cpu.dcache.LoadLockedReq_avg_miss_latency::total        74500                       # average LoadLockedReq miss latency
system.cpu.dcache.LoadLockedReq_mshr_misses::.cpu.data            1                       # number of LoadLockedReq MSHR misses
system.cpu.dcache.LoadLockedReq_mshr_misses::total            1                       # number of LoadLockedReq MSHR misses
system.cpu.dcache.LoadLockedReq_mshr_miss_latency::.cpu.data        73500                       # number of LoadLockedReq MSHR miss cycles
system.cpu.dcache.LoadLockedReq_mshr_miss_latency::total        73500                       # number of LoadLockedReq MSHR miss cycles
system.cpu.dcache.LoadLockedReq_mshr_miss_rate::.cpu.data     0.019608                       # mshr miss rate for LoadLockedReq accesses
system.cpu.dcache.LoadLockedReq_mshr_miss_rate::total     0.019608                       # mshr miss rate for LoadLockedReq accesses
system.cpu.dcache.LoadLockedReq_avg_mshr_miss_latency::.cpu.data        73500                       # average LoadLockedReq mshr miss latency
system.cpu.dcache.LoadLockedReq_avg_mshr_miss_latency::total        73500                       # average LoadLockedReq mshr miss latency
system.cpu.dcache.StoreCondReq_hits::.cpu.data           51                       # number of StoreCondReq hits
system.cpu.dcache.StoreCondReq_hits::total           51                       # number of StoreCondReq hits
system.cpu.dcache.StoreCondReq_accesses::.cpu.data           51                       # number of StoreCondReq accesses(hits+misses)
system.cpu.dcache.StoreCondReq_accesses::total           51                       # number of StoreCondReq accesses(hits+misses)
system.cpu.dcache.power_state.pwrStateResidencyTicks::UNDEFINED 516321461500                       # Cumulative time (in ticks) in various power states
system.cpu.dcache.tags.tagsinuse          1023.520224                       # Cycle average of tags in use
system.cpu.dcache.tags.total_refs            80804308                       # Total number of references to valid blocks.
system.cpu.dcache.tags.sampled_refs           5293565                       # Sample count of references to valid blocks.
system.cpu.dcache.tags.avg_refs             15.264629                       # Average number of references to valid blocks.
system.cpu.dcache.tags.warmup_cycle            176500                       # Cycle when the warmup percentage was hit.
system.cpu.dcache.tags.occ_blocks::.cpu.data  1023.520224                       # Average occupied blocks per requestor
system.cpu.dcache.tags.occ_percent::.cpu.data     0.999531                       # Average percentage of cache occupancy
system.cpu.dcache.tags.occ_percent::total     0.999531                       # Average percentage of cache occupancy
system.cpu.dcache.tags.occ_task_id_blocks::1024         1024                       # Occupied blocks per task id
system.cpu.dcache.tags.age_task_id_blocks_1024::0          103                       # Occupied blocks per task id
system.cpu.dcache.tags.age_task_id_blocks_1024::1          921                       # Occupied blocks per task id
system.cpu.dcache.tags.occ_task_id_percent::1024            1                       # Percentage of cache occupancy per task id
system.cpu.dcache.tags.tag_accesses         177483951                       # Number of tag accesses
system.cpu.dcache.tags.data_accesses        177483951                       # Number of data accesses
system.cpu.dcache.tags.power_state.pwrStateResidencyTicks::UNDEFINED 516321461500                       # Cumulative time (in ticks) in various power states
system.cpu.power_state.pwrStateResidencyTicks::ON 516321461500                       # Cumulative time (in ticks) in various power states
system.cpu.branchPred.lookups                10718627                       # Number of BP lookups
system.cpu.branchPred.condPredicted          10710446                       # Number of conditional branches predicted
system.cpu.branchPred.condIncorrect              1366                       # Number of conditional branches incorrect
system.cpu.branchPred.BTBLookups             10711230                       # Number of BTB lookups
system.cpu.branchPred.BTBHits                10709892                       # Number of BTB hits
system.cpu.branchPred.BTBHitPct             99.987508                       # BTB Hit Percentage
system.cpu.branchPred.RASUsed                    2654                       # Number of times the RAS was used to get a target.
system.cpu.branchPred.RASIncorrect                  8                       # Number of incorrect RAS predictions.
system.cpu.branchPred.indirectLookups             140                       # Number of indirect predictor lookups.
system.cpu.branchPred.indirectHits                  7                       # Number of indirect target hits.
system.cpu.branchPred.indirectMisses              133                       # Number of indirect misses.
system.cpu.branchPred.indirectMispredicted           92                       # Number of mispredicted indirect branches.
system.cpu.fetch2.intInstructions            45539267                       # Number of integer instructions successfully decoded
system.cpu.fetch2.fpInstructions                    0                       # Number of floating point instructions successfully decoded
system.cpu.fetch2.vecInstructions                   0                       # Number of SIMD instructions successfully decoded
system.cpu.fetch2.loadInstructions            1309354                       # Number of memory load instructions successfully decoded
system.cpu.fetch2.storeInstructions            171644                       # Number of memory store instructions successfully decoded
system.cpu.fetch2.amoInstructions                   0                       # Number of memory atomic instructions successfully decoded
system.cpu.itb.instHits                             0                       # ITB inst hits
system.cpu.itb.instMisses                           0                       # ITB inst misses
system.cpu.itb.readHits                             0                       # DTB read hits
system.cpu.itb.readMisses                           0                       # DTB read misses
system.cpu.itb.writeHits                            0                       # DTB write hits
system.cpu.itb.writeMisses                          0                       # DTB write misses
system.cpu.itb.inserts                              0                       # Number of times an entry is inserted into the TLB
system.cpu.itb.flushTlb                             0                       # Number of times complete TLB was flushed
system.cpu.itb.flushTlbMva                          0                       # Number of times TLB was flushed by MVA
system.cpu.itb.flushTlbMvaAsid                      0                       # Number of times TLB was flushed by MVA & ASID
system.cpu.itb.flushTlbAsid                         0                       # Number of times TLB was flushed by ASID
system.cpu.itb.flushedEntries                       0                       # Number of entries that have been flushed from TLB
system.cpu.itb.alignFaults                          0                       # Number of TLB faults due to alignment restrictions
system.cpu.itb.prefetchFaults                       0                       # Number of TLB faults due to prefetch
system.cpu.itb.domainFaults                         0                       # Number of TLB faults due to domain restrictions
system.cpu.itb.permsFaults                          0                       # Number of TLB faults due to permissions restrictions
system.cpu.itb.readAccesses                         0                       # DTB read accesses
system.cpu.itb.writeAccesses                        0                       # DTB write accesses
system.cpu.itb.instAccesses                         0                       # ITB inst accesses
system.cpu.itb.hits                                 0                       # Total TLB (inst and data) hits
system.cpu.itb.misses                               0                       # Total TLB (inst and data) misses
system.cpu.itb.accesses                             0                       # Total TLB (inst and data) accesses
system.cpu.itb.walker.walks                         0                       # Table walker walks requested
system.cpu.itb.walker.requestOrigin_Requested::Data            0                       # Table walker requests started/completed, data/inst
system.cpu.itb.walker.requestOrigin_Requested::Inst            0                       # Table walker requests started/completed, data/inst
system.cpu.itb.walker.requestOrigin_Requested::total            0                       # Table walker requests started/completed, data/inst
system.cpu.itb.walker.requestOrigin_Completed::Data            0                       # Table walker requests started/completed, data/inst
system.cpu.itb.walker.requestOrigin_Completed::Inst            0                       # Table walker requests started/completed, data/inst
system.cpu.itb.walker.requestOrigin_Completed::total            0                       # Table walker requests started/completed, data/inst
system.cpu.itb.walker.requestOrigin::total            0                       # Table walker requests started/completed, data/inst
system.cpu.itb.walker.power_state.pwrStateResidencyTicks::UNDEFINED 516321461500                       # Cumulative time (in ticks) in various power states
system.cpu.itb.stage2_mmu.stage2_tlb.instHits            0                       # ITB inst hits
system.cpu.itb.stage2_mmu.stage2_tlb.instMisses            0                       # ITB inst misses
system.cpu.itb.stage2_mmu.stage2_tlb.readHits            0                       # DTB read hits
system.cpu.itb.stage2_mmu.stage2_tlb.readMisses            0                       # DTB read misses
system.cpu.itb.stage2_mmu.stage2_tlb.writeHits            0                       # DTB write hits
system.cpu.itb.stage2_mmu.stage2_tlb.writeMisses            0                       # DTB write misses
system.cpu.itb.stage2_mmu.stage2_tlb.inserts            0                       # Number of times an entry is inserted into the TLB
system.cpu.itb.stage2_mmu.stage2_tlb.flushTlb            0                       # Number of times complete TLB was flushed
system.cpu.itb.stage2_mmu.stage2_tlb.flushTlbMva            0                       # Number of times TLB was flushed by MVA
system.cpu.itb.stage2_mmu.stage2_tlb.flushTlbMvaAsid            0                       # Number of times TLB was flushed by MVA & ASID
system.cpu.itb.stage2_mmu.stage2_tlb.flushTlbAsid            0                       # Number of times TLB was flushed by ASID
system.cpu.itb.stage2_mmu.stage2_tlb.flushedEntries            0                       # Number of entries that have been flushed from TLB
system.cpu.itb.stage2_mmu.stage2_tlb.alignFaults            0                       # Number of TLB faults due to alignment restrictions
system.cpu.itb.stage2_mmu.stage2_tlb.prefetchFaults            0                       # Number of TLB faults due to prefetch
system.cpu.itb.stage2_mmu.stage2_tlb.domainFaults            0                       # Number of TLB faults due to domain restrictions
system.cpu.itb.stage2_mmu.stage2_tlb.permsFaults            0                       # Number of TLB faults due to permissions restrictions
system.cpu.itb.stage2_mmu.stage2_tlb.readAccesses            0                       # DTB read accesses
system.cpu.itb.stage2_mmu.stage2_tlb.writeAccesses            0                       # DTB write accesses
system.cpu.itb.stage2_mmu.stage2_tlb.instAccesses            0                       # ITB inst accesses
system.cpu.itb.stage2_mmu.stage2_tlb.hits            0                       # Total TLB (inst and data) hits
system.cpu.itb.stage2_mmu.stage2_tlb.misses            0                       # Total TLB (inst and data) misses
system.cpu.itb.stage2_mmu.stage2_tlb.accesses            0                       # Total TLB (inst and data) accesses
system.cpu.itb.stage2_mmu.stage2_tlb.walker.walks            0                       # Table walker walks requested
system.cpu.itb.stage2_mmu.stage2_tlb.walker.requestOrigin_Requested::Data            0                       # Table walker requests started/completed, data/inst
system.cpu.itb.stage2_mmu.stage2_tlb.walker.requestOrigin_Requested::Inst            0                       # Table walker requests started/completed, data/inst
system.cpu.itb.stage2_mmu.stage2_tlb.walker.requestOrigin_Requested::total            0                       # Table walker requests started/completed, data/inst
system.cpu.itb.stage2_mmu.stage2_tlb.walker.requestOrigin_Completed::Data            0                       # Table walker requests started/completed, data/inst
system.cpu.itb.stage2_mmu.stage2_tlb.walker.requestOrigin_Completed::Inst            0                       # Table walker requests started/completed, data/inst
system.cpu.itb.stage2_mmu.stage2_tlb.walker.requestOrigin_Completed::total            0                       # Table walker requests started/completed, data/inst
system.cpu.itb.stage2_mmu.stage2_tlb.walker.requestOrigin::total            0                       # Table walker requests started/completed, data/inst
system.cpu.itb.stage2_mmu.stage2_tlb.walker.power_state.pwrStateResidencyTicks::UNDEFINED 516321461500                       # Cumulative time (in ticks) in various power states

---------- End Simulation Statistics   ----------
