
---------- Begin Simulation Statistics ----------
final_tick                               516038042500                       # Number of ticks from beginning of simulation (restored from checkpoints and never reset)
host_inst_rate                                  66867                       # Simulator instruction rate (inst/s)
host_mem_usage                                 737064                       # Number of bytes of host memory used
host_op_rate                                   123507                       # Simulator op (including micro ops) rate (op/s)
host_seconds                                  1495.51                       # Real time elapsed on the host
host_tick_rate                              345058705                       # Simulator tick rate (ticks/s)
sim_freq                                 1000000000000                       # Frequency of simulated ticks
sim_insts                                   100000001                       # Number of instructions simulated
sim_ops                                     184705555                       # Number of ops (including micro ops) simulated
sim_seconds                                  0.516038                       # Number of seconds simulated
sim_ticks                                516038042500                       # Number of ticks simulated
system.cpu.committedInsts                   100000001                       # Number of instructions committed
system.cpu.committedOps                     184705555                       # Number of ops (including micro ops) committed
system.cpu.cpi                              10.320761                       # CPI: cycles per instruction
system.cpu.discardedOps                          4129                       # Number of ops (including micro ops) which were discarded before commit
system.cpu.idleCycles                       810231923                       # Total number of cycles that the object has spent stopped
system.cpu.ipc                               0.096892                       # IPC: instructions per cycle
system.cpu.numCycles                       1032076085                       # number of cpu cycles simulated
system.cpu.numFetchSuspends                         0                       # Number of times Execute suspended instruction fetching
system.cpu.numWorkItemsCompleted                    0                       # number of work items this cpu completed
system.cpu.numWorkItemsStarted                      0                       # number of work items this cpu started
system.cpu.op_class_0::No_OpClass                   0      0.00%      0.00% # Class of committed instruction
system.cpu.op_class_0::IntAlu                98412611     53.28%     53.28% # Class of committed instruction
system.cpu.op_class_0::IntMult                 114661      0.06%     53.34% # Class of committed instruction
system.cpu.op_class_0::IntDiv                       0      0.00%     53.34% # Class of committed instruction
system.cpu.op_class_0::FloatAdd                     0      0.00%     53.34% # Class of committed instruction
system.cpu.op_class_0::FloatCmp                     0      0.00%     53.34% # Class of committed instruction
system.cpu.op_class_0::FloatCvt                     0      0.00%     53.34% # Class of committed instruction
system.cpu.op_class_0::FloatMult                    0      0.00%     53.34% # Class of committed instruction
system.cpu.op_class_0::FloatMultAcc                 0      0.00%     53.34% # Class of committed instruction
system.cpu.op_class_0::FloatDiv                     0      0.00%     53.34% # Class of committed instruction
system.cpu.op_class_0::FloatMisc                    0      0.00%     53.34% # Class of committed instruction
system.cpu.op_class_0::FloatSqrt                    0      0.00%     53.34% # Class of committed instruction
system.cpu.op_class_0::SimdAdd                      0      0.00%     53.34% # Class of committed instruction
system.cpu.op_class_0::SimdAddAcc                   0      0.00%     53.34% # Class of committed instruction
system.cpu.op_class_0::SimdAlu                      0      0.00%     53.34% # Class of committed instruction
system.cpu.op_class_0::SimdCmp                      0      0.00%     53.34% # Class of committed instruction
system.cpu.op_class_0::SimdCvt                      0      0.00%     53.34% # Class of committed instruction
system.cpu.op_class_0::SimdMisc                     0      0.00%     53.34% # Class of committed instruction
system.cpu.op_class_0::SimdMult                     0      0.00%     53.34% # Class of committed instruction
system.cpu.op_class_0::SimdMultAcc                  0      0.00%     53.34% # Class of committed instruction
system.cpu.op_class_0::SimdShift                    0      0.00%     53.34% # Class of committed instruction
system.cpu.op_class_0::SimdShiftAcc                 0      0.00%     53.34% # Class of committed instruction
system.cpu.op_class_0::SimdDiv                      0      0.00%     53.34% # Class of committed instruction
system.cpu.op_class_0::SimdSqrt                     0      0.00%     53.34% # Class of committed instruction
system.cpu.op_class_0::SimdFloatAdd                 0      0.00%     53.34% # Class of committed instruction
system.cpu.op_class_0::SimdFloatAlu                 0      0.00%     53.34% # Class of committed instruction
system.cpu.op_class_0::SimdFloatCmp                 0      0.00%     53.34% # Class of committed instruction
system.cpu.op_class_0::SimdFloatCvt                 0      0.00%     53.34% # Class of committed instruction
system.cpu.op_class_0::SimdFloatDiv                 0      0.00%     53.34% # Class of committed instruction
system.cpu.op_class_0::SimdFloatMisc                1      0.00%     53.34% # Class of committed instruction
system.cpu.op_class_0::SimdFloatMult                0      0.00%     53.34% # Class of committed instruction
system.cpu.op_class_0::SimdFloatMultAcc             0      0.00%     53.34% # Class of committed instruction
system.cpu.op_class_0::SimdFloatSqrt                0      0.00%     53.34% # Class of committed instruction
system.cpu.op_class_0::SimdReduceAdd                0      0.00%     53.34% # Class of committed instruction
system.cpu.op_class_0::SimdReduceAlu                0      0.00%     53.34% # Class of committed instruction
system.cpu.op_class_0::SimdReduceCmp                0      0.00%     53.34% # Class of committed instruction
system.cpu.op_class_0::SimdFloatReduceAdd            0      0.00%     53.34% # Class of committed instruction
system.cpu.op_class_0::SimdFloatReduceCmp            0      0.00%     53.34% # Class of committed instruction
system.cpu.op_class_0::SimdAes                      0      0.00%     53.34% # Class of committed instruction
system.cpu.op_class_0::SimdAesMix                   0      0.00%     53.34% # Class of committed instruction
system.cpu.op_class_0::SimdSha1Hash                 0      0.00%     53.34% # Class of committed instruction
system.cpu.op_class_0::SimdSha1Hash2                0      0.00%     53.34% # Class of committed instruction
system.cpu.op_class_0::SimdSha256Hash               0      0.00%     53.34% # Class of committed instruction
system.cpu.op_class_0::SimdSha256Hash2              0      0.00%     53.34% # Class of committed instruction
system.cpu.op_class_0::SimdShaSigma2                0      0.00%     53.34% # Class of committed instruction
system.cpu.op_class_0::SimdShaSigma3                0      0.00%     53.34% # Class of committed instruction
system.cpu.op_class_0::SimdPredAlu                  0      0.00%     53.34% # Class of committed instruction
system.cpu.op_class_0::MemRead                1307944      0.71%     54.05% # Class of committed instruction
system.cpu.op_class_0::MemWrite              84870338     45.95%    100.00% # Class of committed instruction
system.cpu.op_class_0::FloatMemRead                 0      0.00%    100.00% # Class of committed instruction
system.cpu.op_class_0::FloatMemWrite                0      0.00%    100.00% # Class of committed instruction
system.cpu.op_class_0::IprAccess                    0      0.00%    100.00% # Class of committed instruction
system.cpu.op_class_0::InstPrefetch                 0      0.00%    100.00% # Class of committed instruction
system.cpu.op_class_0::total                184705555                       # Class of committed instruction
system.cpu.tickCycles                       221844162                       # Number of cycles that the object actually ticked
system.cpu.workload.numSyscalls                    19                       # Number of system calls
system.membus.snoop_filter.hit_multi_requests            0                       # Number of requests hitting in the snoop filter with multiple (>1) holders of the requested data.
system.membus.snoop_filter.hit_multi_snoops            0                       # Number of snoops hitting in the snoop filter with multiple (>1) holders of the requested data.
system.membus.snoop_filter.hit_single_requests      5228153                       # Number of requests hitting in the snoop filter with a single holder of the requested data.
system.membus.snoop_filter.hit_single_snoops            0                       # Number of snoops hitting in the snoop filter with a single holder of the requested data.
system.membus.snoop_filter.tot_requests      10522248                       # Total number of requests made to the snoop filter.
system.membus.snoop_filter.tot_snoops               0                       # Total number of snoops made to the snoop filter.
system.tol2bus.snoop_filter.hit_multi_requests           31                       # Number of requests hitting in the snoop filter with multiple (>1) holders of the requested data.
system.tol2bus.snoop_filter.hit_multi_snoops            0                       # Number of snoops hitting in the snoop filter with multiple (>1) holders of the requested data.
system.tol2bus.snoop_filter.hit_single_requests      5292745                       # Number of requests hitting in the snoop filter with a single holder of the requested data.
system.tol2bus.snoop_filter.hit_single_snoops          521                       # Number of snoops hitting in the snoop filter with a single holder of the requested data.
system.tol2bus.snoop_filter.tot_requests     10586923                       # Total number of requests made to the snoop filter.
system.tol2bus.snoop_filter.tot_snoops            521                       # Total number of snoops made to the snoop filter.
system.membus.trans_dist::ReadResp                768                       # Transaction distribution
system.membus.trans_dist::WritebackDirty      5227825                       # Transaction distribution
system.membus.trans_dist::CleanEvict              326                       # Transaction distribution
system.membus.trans_dist::ReadExReq           5293329                       # Transaction distribution
system.membus.trans_dist::ReadExResp          5293329                       # Transaction distribution
system.membus.trans_dist::ReadSharedReq           768                       # Transaction distribution
system.membus.pkt_count_system.l2.mem_side_port::system.mem_ctrls.port     15816345                       # Packet count per connected requestor and responder (bytes)
system.membus.pkt_count::total               15816345                       # Packet count per connected requestor and responder (bytes)
system.membus.pkt_size_system.l2.mem_side_port::system.mem_ctrls.port    673403008                       # Cumulative packet size per connected requestor and responder (bytes)
system.membus.pkt_size::total               673403008                       # Cumulative packet size per connected requestor and responder (bytes)
system.membus.snoops                                0                       # Total snoops (count)
system.membus.snoopTraffic                          0                       # Total snoop traffic (bytes)
system.membus.snoop_fanout::samples           5294097                       # Request fanout histogram
system.membus.snoop_fanout::mean                    0                       # Request fanout histogram
system.membus.snoop_fanout::stdev                   0                       # Request fanout histogram
system.membus.snoop_fanout::underflows              0      0.00%      0.00% # Request fanout histogram
system.membus.snoop_fanout::0                 5294097    100.00%    100.00% # Request fanout histogram
system.membus.snoop_fanout::1                       0      0.00%    100.00% # Request fanout histogram
system.membus.snoop_fanout::overflows               0      0.00%    100.00% # Request fanout histogram
system.membus.snoop_fanout::min_value               0                       # Request fanout histogram
system.membus.snoop_fanout::max_value               0                       # Request fanout histogram
system.membus.snoop_fanout::total             5294097                       # Request fanout histogram
system.membus.reqLayer0.occupancy         31456987500                       # Layer occupancy (ticks)
system.membus.reqLayer0.utilization               6.1                       # Layer utilization (%)
system.membus.respLayer1.occupancy        27843493500                       # Layer occupancy (ticks)
system.membus.respLayer1.utilization              5.4                       # Layer utilization (%)
system.membus.power_state.pwrStateResidencyTicks::UNDEFINED 516038042500                       # Cumulative time (in ticks) in various power states
system.tol2bus.trans_dist::ReadResp               839                       # Transaction distribution
system.tol2bus.trans_dist::WritebackDirty     10520185                       # Transaction distribution
system.tol2bus.trans_dist::WritebackClean          204                       # Transaction distribution
system.tol2bus.trans_dist::CleanEvict            1028                       # Transaction distribution
system.tol2bus.trans_dist::ReadExReq          5293339                       # Transaction distribution
system.tol2bus.trans_dist::ReadExResp         5293338                       # Transaction distribution
system.tol2bus.trans_dist::ReadCleanReq           612                       # Transaction distribution
system.tol2bus.trans_dist::ReadSharedReq          227                       # Transaction distribution
system.tol2bus.pkt_count_system.cpu.icache.mem_side_port::system.l2.cpu_side_port         1428                       # Packet count per connected requestor and responder (bytes)
system.tol2bus.pkt_count_system.cpu.dcache.mem_side_port::system.l2.cpu_side_port     15879672                       # Packet count per connected requestor and responder (bytes)
system.tol2bus.pkt_count::total              15881100                       # Packet count per connected requestor and responder (bytes)
system.tol2bus.pkt_size_system.cpu.icache.mem_side_port::system.l2.cpu_side_port        52224                       # Cumulative packet size per connected requestor and responder (bytes)
system.tol2bus.pkt_size_system.cpu.dcache.mem_side_port::system.l2.cpu_side_port    677499200                       # Cumulative packet size per connected requestor and responder (bytes)
system.tol2bus.pkt_size::total              677551424                       # Cumulative packet size per connected requestor and responder (bytes)
system.tol2bus.snoops                         5228672                       # Total snoops (count)
system.tol2bus.snoopTraffic                 334580800                       # Total snoop traffic (bytes)
system.tol2bus.snoop_fanout::samples         10522850                       # Request fanout histogram
system.tol2bus.snoop_fanout::mean            0.000052                       # Request fanout histogram
system.tol2bus.snoop_fanout::stdev           0.007243                       # Request fanout histogram
system.tol2bus.snoop_fanout::underflows             0      0.00%      0.00% # Request fanout histogram
system.tol2bus.snoop_fanout::0               10522298     99.99%     99.99% # Request fanout histogram
system.tol2bus.snoop_fanout::1                    552      0.01%    100.00% # Request fanout histogram
system.tol2bus.snoop_fanout::2                      0      0.00%    100.00% # Request fanout histogram
system.tol2bus.snoop_fanout::overflows              0      0.00%    100.00% # Request fanout histogram
system.tol2bus.snoop_fanout::min_value              0                       # Request fanout histogram
system.tol2bus.snoop_fanout::max_value              1                       # Request fanout histogram
system.tol2bus.snoop_fanout::total           10522850                       # Request fanout histogram
system.tol2bus.reqLayer0.occupancy        10586025500                       # Layer occupancy (ticks)
system.tol2bus.reqLayer0.utilization              2.1                       # Layer utilization (%)
system.tol2bus.respLayer1.occupancy        7940350494                       # Layer occupancy (ticks)
system.tol2bus.respLayer1.utilization             1.5                       # Layer utilization (%)
system.tol2bus.respLayer0.occupancy            918000                       # Layer occupancy (ticks)
system.tol2bus.respLayer0.utilization             0.0                       # Layer utilization (%)
system.tol2bus.power_state.pwrStateResidencyTicks::UNDEFINED 516038042500                       # Cumulative time (in ticks) in various power states
system.voltage_domain.voltage                       1                       # Voltage in Volts
system.clk_domain.clock                          1000                       # Clock period in ticks
system.l2.demand_hits::.cpu.inst                   33                       # number of demand (read+write) hits
system.l2.demand_hits::.cpu.data                   41                       # number of demand (read+write) hits
system.l2.demand_hits::total                       74                       # number of demand (read+write) hits
system.l2.overall_hits::.cpu.inst                  33                       # number of overall hits
system.l2.overall_hits::.cpu.data                  41                       # number of overall hits
system.l2.overall_hits::total                      74                       # number of overall hits
system.l2.demand_misses::.cpu.inst                579                       # number of demand (read+write) misses
system.l2.demand_misses::.cpu.data            5293525                       # number of demand (read+write) misses
system.l2.demand_misses::total                5294104                       # number of demand (read+write) misses
system.l2.overall_misses::.cpu.inst               579                       # number of overall misses
system.l2.overall_misses::.cpu.data           5293525                       # number of overall misses
system.l2.overall_misses::total               5294104                       # number of overall misses
system.l2.demand_miss_latency::.cpu.inst     46540000                       # number of demand (read+write) miss cycles
system.l2.demand_miss_latency::.cpu.data 426315405500                       # number of demand (read+write) miss cycles
system.l2.demand_miss_latency::total     426361945500                       # number of demand (read+write) miss cycles
system.l2.overall_miss_latency::.cpu.inst     46540000                       # number of overall miss cycles
system.l2.overall_miss_latency::.cpu.data 426315405500                       # number of overall miss cycles
system.l2.overall_miss_latency::total    426361945500                       # number of overall miss cycles
system.l2.demand_accesses::.cpu.inst              612                       # number of demand (read+write) accesses
system.l2.demand_accesses::.cpu.data          5293566                       # number of demand (read+write) accesses
system.l2.demand_accesses::total              5294178                       # number of demand (read+write) accesses
system.l2.overall_accesses::.cpu.inst             612                       # number of overall (read+write) accesses
system.l2.overall_accesses::.cpu.data         5293566                       # number of overall (read+write) accesses
system.l2.overall_accesses::total             5294178                       # number of overall (read+write) accesses
system.l2.demand_miss_rate::.cpu.inst        0.946078                       # miss rate for demand accesses
system.l2.demand_miss_rate::.cpu.data        0.999992                       # miss rate for demand accesses
system.l2.demand_miss_rate::total            0.999986                       # miss rate for demand accesses
system.l2.overall_miss_rate::.cpu.inst       0.946078                       # miss rate for overall accesses
system.l2.overall_miss_rate::.cpu.data       0.999992                       # miss rate for overall accesses
system.l2.overall_miss_rate::total           0.999986                       # miss rate for overall accesses
system.l2.demand_avg_miss_latency::.cpu.inst 80379.965458                       # average overall miss latency
system.l2.demand_avg_miss_latency::.cpu.data 80535.258736                       # average overall miss latency
system.l2.demand_avg_miss_latency::total 80535.241752                       # average overall miss latency
system.l2.overall_avg_miss_latency::.cpu.inst 80379.965458                       # average overall miss latency
system.l2.overall_avg_miss_latency::.cpu.data 80535.258736                       # average overall miss latency
system.l2.overall_avg_miss_latency::total 80535.241752                       # average overall miss latency
system.l2.blocked_cycles::no_mshrs                  0                       # number of cycles access was blocked
system.l2.blocked_cycles::no_targets                0                       # number of cycles access was blocked
system.l2.blocked::no_mshrs                         0                       # number of cycles access was blocked
system.l2.blocked::no_targets                       0                       # number of cycles access was blocked
system.l2.avg_blocked_cycles::no_mshrs            nan                       # average number of cycles each access was blocked
system.l2.avg_blocked_cycles::no_targets          nan                       # average number of cycles each access was blocked
system.l2.writebacks::.writebacks             5227825                       # number of writebacks
system.l2.writebacks::total                   5227825                       # number of writebacks
system.l2.demand_mshr_hits::.cpu.data               6                       # number of demand (read+write) MSHR hits
system.l2.demand_mshr_hits::total                   6                       # number of demand (read+write) MSHR hits
system.l2.overall_mshr_hits::.cpu.data              6                       # number of overall MSHR hits
system.l2.overall_mshr_hits::total                  6                       # number of overall MSHR hits
system.l2.demand_mshr_misses::.cpu.inst           579                       # number of demand (read+write) MSHR misses
system.l2.demand_mshr_misses::.cpu.data       5293519                       # number of demand (read+write) MSHR misses
system.l2.demand_mshr_misses::total           5294098                       # number of demand (read+write) MSHR misses
system.l2.overall_mshr_misses::.cpu.inst          579                       # number of overall MSHR misses
system.l2.overall_mshr_misses::.cpu.data      5293519                       # number of overall MSHR misses
system.l2.overall_mshr_misses::total          5294098                       # number of overall MSHR misses
system.l2.demand_mshr_miss_latency::.cpu.inst     40750000                       # number of demand (read+write) MSHR miss cycles
system.l2.demand_mshr_miss_latency::.cpu.data 373379704000                       # number of demand (read+write) MSHR miss cycles
system.l2.demand_mshr_miss_latency::total 373420454000                       # number of demand (read+write) MSHR miss cycles
system.l2.overall_mshr_miss_latency::.cpu.inst     40750000                       # number of overall MSHR miss cycles
system.l2.overall_mshr_miss_latency::.cpu.data 373379704000                       # number of overall MSHR miss cycles
system.l2.overall_mshr_miss_latency::total 373420454000                       # number of overall MSHR miss cycles
system.l2.demand_mshr_miss_rate::.cpu.inst     0.946078                       # mshr miss rate for demand accesses
system.l2.demand_mshr_miss_rate::.cpu.data     0.999991                       # mshr miss rate for demand accesses
system.l2.demand_mshr_miss_rate::total       0.999985                       # mshr miss rate for demand accesses
system.l2.overall_mshr_miss_rate::.cpu.inst     0.946078                       # mshr miss rate for overall accesses
system.l2.overall_mshr_miss_rate::.cpu.data     0.999991                       # mshr miss rate for overall accesses
system.l2.overall_mshr_miss_rate::total      0.999985                       # mshr miss rate for overall accesses
system.l2.demand_avg_mshr_miss_latency::.cpu.inst 70379.965458                       # average overall mshr miss latency
system.l2.demand_avg_mshr_miss_latency::.cpu.data 70535.253392                       # average overall mshr miss latency
system.l2.demand_avg_mshr_miss_latency::total 70535.236409                       # average overall mshr miss latency
system.l2.overall_avg_mshr_miss_latency::.cpu.inst 70379.965458                       # average overall mshr miss latency
system.l2.overall_avg_mshr_miss_latency::.cpu.data 70535.253392                       # average overall mshr miss latency
system.l2.overall_avg_mshr_miss_latency::total 70535.236409                       # average overall mshr miss latency
system.l2.replacements                        5228672                       # number of replacements
system.l2.WritebackDirty_hits::.writebacks      5292360                       # number of WritebackDirty hits
system.l2.WritebackDirty_hits::total          5292360                       # number of WritebackDirty hits
system.l2.WritebackDirty_accesses::.writebacks      5292360                       # number of WritebackDirty accesses(hits+misses)
system.l2.WritebackDirty_accesses::total      5292360                       # number of WritebackDirty accesses(hits+misses)
system.l2.WritebackClean_hits::.writebacks          203                       # number of WritebackClean hits
system.l2.WritebackClean_hits::total              203                       # number of WritebackClean hits
system.l2.WritebackClean_accesses::.writebacks          203                       # number of WritebackClean accesses(hits+misses)
system.l2.WritebackClean_accesses::total          203                       # number of WritebackClean accesses(hits+misses)
system.l2.ReadExReq_hits::.cpu.data                 9                       # number of ReadExReq hits
system.l2.ReadExReq_hits::total                     9                       # number of ReadExReq hits
system.l2.ReadExReq_misses::.cpu.data         5293330                       # number of ReadExReq misses
system.l2.ReadExReq_misses::total             5293330                       # number of ReadExReq misses
system.l2.ReadExReq_miss_latency::.cpu.data 426298620000                       # number of ReadExReq miss cycles
system.l2.ReadExReq_miss_latency::total  426298620000                       # number of ReadExReq miss cycles
system.l2.ReadExReq_accesses::.cpu.data       5293339                       # number of ReadExReq accesses(hits+misses)
system.l2.ReadExReq_accesses::total           5293339                       # number of ReadExReq accesses(hits+misses)
system.l2.ReadExReq_miss_rate::.cpu.data     0.999998                       # miss rate for ReadExReq accesses
system.l2.ReadExReq_miss_rate::total         0.999998                       # miss rate for ReadExReq accesses
system.l2.ReadExReq_avg_miss_latency::.cpu.data 80535.054493                       # average ReadExReq miss latency
system.l2.ReadExReq_avg_miss_latency::total 80535.054493                       # average ReadExReq miss latency
system.l2.ReadExReq_mshr_misses::.cpu.data      5293330                       # number of ReadExReq MSHR misses
system.l2.ReadExReq_mshr_misses::total        5293330                       # number of ReadExReq MSHR misses
system.l2.ReadExReq_mshr_miss_latency::.cpu.data 373365330000                       # number of ReadExReq MSHR miss cycles
system.l2.ReadExReq_mshr_miss_latency::total 373365330000                       # number of ReadExReq MSHR miss cycles
system.l2.ReadExReq_mshr_miss_rate::.cpu.data     0.999998                       # mshr miss rate for ReadExReq accesses
system.l2.ReadExReq_mshr_miss_rate::total     0.999998                       # mshr miss rate for ReadExReq accesses
system.l2.ReadExReq_avg_mshr_miss_latency::.cpu.data 70535.056382                       # average ReadExReq mshr miss latency
system.l2.ReadExReq_avg_mshr_miss_latency::total 70535.056382                       # average ReadExReq mshr miss latency
system.l2.ReadCleanReq_hits::.cpu.inst             33                       # number of ReadCleanReq hits
system.l2.ReadCleanReq_hits::total                 33                       # number of ReadCleanReq hits
system.l2.ReadCleanReq_misses::.cpu.inst          579                       # number of ReadCleanReq misses
system.l2.ReadCleanReq_misses::total              579                       # number of ReadCleanReq misses
system.l2.ReadCleanReq_miss_latency::.cpu.inst     46540000                       # number of ReadCleanReq miss cycles
system.l2.ReadCleanReq_miss_latency::total     46540000                       # number of ReadCleanReq miss cycles
system.l2.ReadCleanReq_accesses::.cpu.inst          612                       # number of ReadCleanReq accesses(hits+misses)
system.l2.ReadCleanReq_accesses::total            612                       # number of ReadCleanReq accesses(hits+misses)
system.l2.ReadCleanReq_miss_rate::.cpu.inst     0.946078                       # miss rate for ReadCleanReq accesses
system.l2.ReadCleanReq_miss_rate::total      0.946078                       # miss rate for ReadCleanReq accesses
system.l2.ReadCleanReq_avg_miss_latency::.cpu.inst 80379.965458                       # average ReadCleanReq miss latency
system.l2.ReadCleanReq_avg_miss_latency::total 80379.965458                       # average ReadCleanReq miss latency
system.l2.ReadCleanReq_mshr_misses::.cpu.inst          579                       # number of ReadCleanReq MSHR misses
system.l2.ReadCleanReq_mshr_misses::total          579                       # number of ReadCleanReq MSHR misses
system.l2.ReadCleanReq_mshr_miss_latency::.cpu.inst     40750000                       # number of ReadCleanReq MSHR miss cycles
system.l2.ReadCleanReq_mshr_miss_latency::total     40750000                       # number of ReadCleanReq MSHR miss cycles
system.l2.ReadCleanReq_mshr_miss_rate::.cpu.inst     0.946078                       # mshr miss rate for ReadCleanReq accesses
system.l2.ReadCleanReq_mshr_miss_rate::total     0.946078                       # mshr miss rate for ReadCleanReq accesses
system.l2.ReadCleanReq_avg_mshr_miss_latency::.cpu.inst 70379.965458                       # average ReadCleanReq mshr miss latency
system.l2.ReadCleanReq_avg_mshr_miss_latency::total 70379.965458                       # average ReadCleanReq mshr miss latency
system.l2.ReadSharedReq_hits::.cpu.data            32                       # number of ReadSharedReq hits
system.l2.ReadSharedReq_hits::total                32                       # number of ReadSharedReq hits
system.l2.ReadSharedReq_misses::.cpu.data          195                       # number of ReadSharedReq misses
system.l2.ReadSharedReq_misses::total             195                       # number of ReadSharedReq misses
system.l2.ReadSharedReq_miss_latency::.cpu.data     16785500                       # number of ReadSharedReq miss cycles
system.l2.ReadSharedReq_miss_latency::total     16785500                       # number of ReadSharedReq miss cycles
system.l2.ReadSharedReq_accesses::.cpu.data          227                       # number of ReadSharedReq accesses(hits+misses)
system.l2.ReadSharedReq_accesses::total           227                       # number of ReadSharedReq accesses(hits+misses)
system.l2.ReadSharedReq_miss_rate::.cpu.data     0.859031                       # miss rate for ReadSharedReq accesses
system.l2.ReadSharedReq_miss_rate::total     0.859031                       # miss rate for ReadSharedReq accesses
system.l2.ReadSharedReq_avg_miss_latency::.cpu.data 86079.487179                       # average ReadSharedReq miss latency
system.l2.ReadSharedReq_avg_miss_latency::total 86079.487179                       # average ReadSharedReq miss latency
system.l2.ReadSharedReq_mshr_hits::.cpu.data            6                       # number of ReadSharedReq MSHR hits
system.l2.ReadSharedReq_mshr_hits::total            6                       # number of ReadSharedReq MSHR hits
system.l2.ReadSharedReq_mshr_misses::.cpu.data          189                       # number of ReadSharedReq MSHR misses
system.l2.ReadSharedReq_mshr_misses::total          189                       # number of ReadSharedReq MSHR misses
system.l2.ReadSharedReq_mshr_miss_latency::.cpu.data     14374000                       # number of ReadSharedReq MSHR miss cycles
system.l2.ReadSharedReq_mshr_miss_latency::total     14374000                       # number of ReadSharedReq MSHR miss cycles
system.l2.ReadSharedReq_mshr_miss_rate::.cpu.data     0.832599                       # mshr miss rate for ReadSharedReq accesses
system.l2.ReadSharedReq_mshr_miss_rate::total     0.832599                       # mshr miss rate for ReadSharedReq accesses
system.l2.ReadSharedReq_avg_mshr_miss_latency::.cpu.data 76052.910053                       # average ReadSharedReq mshr miss latency
system.l2.ReadSharedReq_avg_mshr_miss_latency::total 76052.910053                       # average ReadSharedReq mshr miss latency
system.l2.power_state.pwrStateResidencyTicks::UNDEFINED 516038042500                       # Cumulative time (in ticks) in various power states
system.l2.tags.tagsinuse                 64896.531684                       # Cycle average of tags in use
system.l2.tags.total_refs                    10586885                       # Total number of references to valid blocks.
system.l2.tags.sampled_refs                   5294208                       # Sample count of references to valid blocks.
system.l2.tags.avg_refs                      1.999711                       # Average number of references to valid blocks.
system.l2.tags.warmup_cycle                     77000                       # Cycle when the warmup percentage was hit.
system.l2.tags.occ_blocks::.writebacks       1.232141                       # Average occupied blocks per requestor
system.l2.tags.occ_blocks::.cpu.inst         7.484902                       # Average occupied blocks per requestor
system.l2.tags.occ_blocks::.cpu.data     64887.814641                       # Average occupied blocks per requestor
system.l2.tags.occ_percent::.writebacks      0.000019                       # Average percentage of cache occupancy
system.l2.tags.occ_percent::.cpu.inst        0.000114                       # Average percentage of cache occupancy
system.l2.tags.occ_percent::.cpu.data        0.990109                       # Average percentage of cache occupancy
system.l2.tags.occ_percent::total            0.990242                       # Average percentage of cache occupancy
system.l2.tags.occ_task_id_blocks::1024         65536                       # Occupied blocks per task id
system.l2.tags.age_task_id_blocks_1024::0          104                       # Occupied blocks per task id
system.l2.tags.age_task_id_blocks_1024::1          925                       # Occupied blocks per task id
system.l2.tags.age_task_id_blocks_1024::2         9273                       # Occupied blocks per task id
system.l2.tags.age_task_id_blocks_1024::3        55234                       # Occupied blocks per task id
system.l2.tags.occ_task_id_percent::1024            1                       # Percentage of cache occupancy per task id
system.l2.tags.tag_accesses                  89989344                       # Number of tag accesses
system.l2.tags.data_accesses                 89989344                       # Number of data accesses
system.l2.tags.power_state.pwrStateResidencyTicks::UNDEFINED 516038042500                       # Cumulative time (in ticks) in various power states
system.cpu_voltage_domain.voltage                   1                       # Voltage in Volts
system.mem_ctrls.avgPriority_.writebacks::samples   5227825.00                       # Average QoS priority value for accepted requests
system.mem_ctrls.avgPriority_.cpu.inst::samples       579.00                       # Average QoS priority value for accepted requests
system.mem_ctrls.avgPriority_.cpu.data::samples   5293518.00                       # Average QoS priority value for accepted requests
system.mem_ctrls.priorityMinLatency      0.000000018750                       # per QoS priority minimum request to response latency (s)
system.mem_ctrls.priorityMaxLatency      0.001272640500                       # per QoS priority maximum request to response latency (s)
system.mem_ctrls.numReadWriteTurnArounds       326679                       # Number of turnarounds from READ to WRITE
system.mem_ctrls.numWriteReadTurnArounds       326679                       # Number of turnarounds from WRITE to READ
system.mem_ctrls.numStayReadState            15610733                       # Number of times bus staying in READ state
system.mem_ctrls.numStayWriteState            4911182                       # Number of times bus staying in WRITE state
system.mem_ctrls.readReqs                     5294097                       # Number of read requests accepted
system.mem_ctrls.writeReqs                    5227825                       # Number of write requests accepted
system.mem_ctrls.readBursts                   5294097                       # Number of controller read bursts, including those serviced by the write queue
system.mem_ctrls.writeBursts                  5227825                       # Number of controller write bursts, including those merged in the write queue
system.mem_ctrls.servicedByWrQ                      0                       # Number of controller read bursts serviced by the write queue
system.mem_ctrls.mergedWrBursts                     0                       # Number of controller write bursts merged with an existing one
system.mem_ctrls.neitherReadNorWriteReqs            0                       # Number of requests that are neither read nor write
system.mem_ctrls.avgRdQLen                       1.00                       # Average read queue length when enqueuing
system.mem_ctrls.avgWrQLen                      25.72                       # Average write queue length when enqueuing
system.mem_ctrls.numRdRetry                         0                       # Number of times read queue was full causing retry
system.mem_ctrls.numWrRetry                         0                       # Number of times write queue was full causing retry
system.mem_ctrls.readPktSize::0                     0                       # Read request sizes (log2)
system.mem_ctrls.readPktSize::1                     0                       # Read request sizes (log2)
system.mem_ctrls.readPktSize::2                     0                       # Read request sizes (log2)
system.mem_ctrls.readPktSize::3                     0                       # Read request sizes (log2)
system.mem_ctrls.readPktSize::4                     0                       # Read request sizes (log2)
system.mem_ctrls.readPktSize::5                     0                       # Read request sizes (log2)
system.mem_ctrls.readPktSize::6               5294097                       # Read request sizes (log2)
system.mem_ctrls.writePktSize::0                    0                       # Write request sizes (log2)
system.mem_ctrls.writePktSize::1                    0                       # Write request sizes (log2)
system.mem_ctrls.writePktSize::2                    0                       # Write request sizes (log2)
system.mem_ctrls.writePktSize::3                    0                       # Write request sizes (log2)
system.mem_ctrls.writePktSize::4                    0                       # Write request sizes (log2)
system.mem_ctrls.writePktSize::5                    0                       # Write request sizes (log2)
system.mem_ctrls.writePktSize::6              5227825                       # Write request sizes (log2)
system.mem_ctrls.rdQLenPdf::0                 5293216                       # What read queue length does an incoming req see
system.mem_ctrls.rdQLenPdf::1                     851                       # What read queue length does an incoming req see
system.mem_ctrls.rdQLenPdf::2                      27                       # What read queue length does an incoming req see
system.mem_ctrls.rdQLenPdf::3                       3                       # What read queue length does an incoming req see
system.mem_ctrls.rdQLenPdf::4                       0                       # What read queue length does an incoming req see
system.mem_ctrls.rdQLenPdf::5                       0                       # What read queue length does an incoming req see
system.mem_ctrls.rdQLenPdf::6                       0                       # What read queue length does an incoming req see
system.mem_ctrls.rdQLenPdf::7                       0                       # What read queue length does an incoming req see
system.mem_ctrls.rdQLenPdf::8                       0                       # What read queue length does an incoming req see
system.mem_ctrls.rdQLenPdf::9                       0                       # What read queue length does an incoming req see
system.mem_ctrls.rdQLenPdf::10                      0                       # What read queue length does an incoming req see
system.mem_ctrls.rdQLenPdf::11                      0                       # What read queue length does an incoming req see
system.mem_ctrls.rdQLenPdf::12                      0                       # What read queue length does an incoming req see
system.mem_ctrls.rdQLenPdf::13                      0                       # What read queue length does an incoming req see
system.mem_ctrls.rdQLenPdf::14                      0                       # What read queue length does an incoming req see
system.mem_ctrls.rdQLenPdf::15                      0                       # What read queue length does an incoming req see
system.mem_ctrls.rdQLenPdf::16                      0                       # What read queue length does an incoming req see
system.mem_ctrls.rdQLenPdf::17                      0                       # What read queue length does an incoming req see
system.mem_ctrls.rdQLenPdf::18                      0                       # What read queue length does an incoming req see
system.mem_ctrls.rdQLenPdf::19                      0                       # What read queue length does an incoming req see
system.mem_ctrls.rdQLenPdf::20                      0                       # What read queue length does an incoming req see
system.mem_ctrls.rdQLenPdf::21                      0                       # What read queue length does an incoming req see
system.mem_ctrls.rdQLenPdf::22                      0                       # What read queue length does an incoming req see
system.mem_ctrls.rdQLenPdf::23                      0                       # What read queue length does an incoming req see
system.mem_ctrls.rdQLenPdf::24                      0                       # What read queue length does an incoming req see
system.mem_ctrls.rdQLenPdf::25                      0                       # What read queue length does an incoming req see
system.mem_ctrls.rdQLenPdf::26                      0                       # What read queue length does an incoming req see
system.mem_ctrls.rdQLenPdf::27                      0                       # What read queue length does an incoming req see
system.mem_ctrls.rdQLenPdf::28                      0                       # What read queue length does an incoming req see
system.mem_ctrls.rdQLenPdf::29                      0                       # What read queue length does an incoming req see
system.mem_ctrls.rdQLenPdf::30                      0                       # What read queue length does an incoming req see
system.mem_ctrls.rdQLenPdf::31                      0                       # What read queue length does an incoming req see
system.mem_ctrls.wrQLenPdf::0                       1                       # What write queue length does an incoming req see
system.mem_ctrls.wrQLenPdf::1                       1                       # What write queue length does an incoming req see
system.mem_ctrls.wrQLenPdf::2                       1                       # What write queue length does an incoming req see
system.mem_ctrls.wrQLenPdf::3                       1                       # What write queue length does an incoming req see
system.mem_ctrls.wrQLenPdf::4                       1                       # What write queue length does an incoming req see
system.mem_ctrls.wrQLenPdf::5                       1                       # What write queue length does an incoming req see
system.mem_ctrls.wrQLenPdf::6                       1                       # What write queue length does an incoming req see
system.mem_ctrls.wrQLenPdf::7                       1                       # What write queue length does an incoming req see
system.mem_ctrls.wrQLenPdf::8                       1                       # What write queue length does an incoming req see
system.mem_ctrls.wrQLenPdf::9                       1                       # What write queue length does an incoming req see
system.mem_ctrls.wrQLenPdf::10                      1                       # What write queue length does an incoming req see
system.mem_ctrls.wrQLenPdf::11                      1                       # What write queue length does an incoming req see
system.mem_ctrls.wrQLenPdf::12                      1                       # What write queue length does an incoming req see
system.mem_ctrls.wrQLenPdf::13                      1                       # What write queue length does an incoming req see
system.mem_ctrls.wrQLenPdf::14                      1                       # What write queue length does an incoming req see
system.mem_ctrls.wrQLenPdf::15                    310                       # What write queue length does an incoming req see
system.mem_ctrls.wrQLenPdf::16                    312                       # What write queue length does an incoming req see
system.mem_ctrls.wrQLenPdf::17                 324549                       # What write queue length does an incoming req see
system.mem_ctrls.wrQLenPdf::18                 326680                       # What write queue length does an incoming req see
system.mem_ctrls.wrQLenPdf::19                 326681                       # What write queue length does an incoming req see
system.mem_ctrls.wrQLenPdf::20                 326683                       # What write queue length does an incoming req see
system.mem_ctrls.wrQLenPdf::21                 326680                       # What write queue length does an incoming req see
system.mem_ctrls.wrQLenPdf::22                 326680                       # What write queue length does an incoming req see
system.mem_ctrls.wrQLenPdf::23                 326700                       # What write queue length does an incoming req see
system.mem_ctrls.wrQLenPdf::24                 326687                       # What write queue length does an incoming req see
system.mem_ctrls.wrQLenPdf::25                 329082                       # What write queue length does an incoming req see
system.mem_ctrls.wrQLenPdf::26                 326682                       # What write queue length does an incoming req see
system.mem_ctrls.wrQLenPdf::27                 326681                       # What write queue length does an incoming req see
system.mem_ctrls.wrQLenPdf::28                 326680                       # What write queue length does an incoming req see
system.mem_ctrls.wrQLenPdf::29                 326681                       # What write queue length does an incoming req see
system.mem_ctrls.wrQLenPdf::30                 326681                       # What write queue length does an incoming req see
system.mem_ctrls.wrQLenPdf::31                 326682                       # What write queue length does an incoming req see
system.mem_ctrls.wrQLenPdf::32                 326679                       # What write queue length does an incoming req see
system.mem_ctrls.wrQLenPdf::33                      0                       # What write queue length does an incoming req see
system.mem_ctrls.wrQLenPdf::34                      0                       # What write queue length does an incoming req see
system.mem_ctrls.wrQLenPdf::35                      0                       # What write queue length does an incoming req see
system.mem_ctrls.wrQLenPdf::36                      0                       # What write queue length does an incoming req see
system.mem_ctrls.wrQLenPdf::37                      0                       # What write queue length does an incoming req see
system.mem_ctrls.wrQLenPdf::38                      0                       # What write queue length does an incoming req see
system.mem_ctrls.wrQLenPdf::39                      0                       # What write queue length does an incoming req see
system.mem_ctrls.wrQLenPdf::40                      0                       # What write queue length does an incoming req see
system.mem_ctrls.wrQLenPdf::41                      0                       # What write queue length does an incoming req see
system.mem_ctrls.wrQLenPdf::42                      0                       # What write queue length does an incoming req see
system.mem_ctrls.wrQLenPdf::43                      0                       # What write queue length does an incoming req see
system.mem_ctrls.wrQLenPdf::44                      0                       # What write queue length does an incoming req see
system.mem_ctrls.wrQLenPdf::45                      0                       # What write queue length does an incoming req see
system.mem_ctrls.wrQLenPdf::46                      0                       # What write queue length does an incoming req see
system.mem_ctrls.wrQLenPdf::47                      0                       # What write queue length does an incoming req see
system.mem_ctrls.wrQLenPdf::48                      0                       # What write queue length does an incoming req see
system.mem_ctrls.wrQLenPdf::49                      0                       # What write queue length does an incoming req see
system.mem_ctrls.wrQLenPdf::50                      0                       # What write queue length does an incoming req see
system.mem_ctrls.wrQLenPdf::51                      0                       # What write queue length does an incoming req see
system.mem_ctrls.wrQLenPdf::52                      0                       # What write queue length does an incoming req see
system.mem_ctrls.wrQLenPdf::53                      0                       # What write queue length does an incoming req see
system.mem_ctrls.wrQLenPdf::54                      0                       # What write queue length does an incoming req see
system.mem_ctrls.wrQLenPdf::55                      0                       # What write queue length does an incoming req see
system.mem_ctrls.wrQLenPdf::56                      0                       # What write queue length does an incoming req see
system.mem_ctrls.wrQLenPdf::57                      0                       # What write queue length does an incoming req see
system.mem_ctrls.wrQLenPdf::58                      0                       # What write queue length does an incoming req see
system.mem_ctrls.wrQLenPdf::59                      0                       # What write queue length does an incoming req see
system.mem_ctrls.wrQLenPdf::60                      0                       # What write queue length does an incoming req see
system.mem_ctrls.wrQLenPdf::61                      0                       # What write queue length does an incoming req see
system.mem_ctrls.wrQLenPdf::62                      0                       # What write queue length does an incoming req see
system.mem_ctrls.wrQLenPdf::63                      0                       # What write queue length does an incoming req see
system.mem_ctrls.rdPerTurnAround::samples       326679                       # Reads before turning the bus around for writes
system.mem_ctrls.rdPerTurnAround::mean      16.205762                       # Reads before turning the bus around for writes
system.mem_ctrls.rdPerTurnAround::gmean     16.006164                       # Reads before turning the bus around for writes
system.mem_ctrls.rdPerTurnAround::stdev    105.551662                       # Reads before turning the bus around for writes
system.mem_ctrls.rdPerTurnAround::0-2047       326678    100.00%    100.00% # Reads before turning the bus around for writes
system.mem_ctrls.rdPerTurnAround::59392-61439            1      0.00%    100.00% # Reads before turning the bus around for writes
system.mem_ctrls.rdPerTurnAround::total        326679                       # Reads before turning the bus around for writes
system.mem_ctrls.wrPerTurnAround::samples       326679                       # Writes before turning the bus around for reads
system.mem_ctrls.wrPerTurnAround::mean      16.002844                       # Writes before turning the bus around for reads
system.mem_ctrls.wrPerTurnAround::gmean     16.002608                       # Writes before turning the bus around for reads
system.mem_ctrls.wrPerTurnAround::stdev      0.092122                       # Writes before turning the bus around for reads
system.mem_ctrls.wrPerTurnAround::16           326366     99.90%     99.90% # Writes before turning the bus around for reads
system.mem_ctrls.wrPerTurnAround::17                3      0.00%     99.91% # Writes before turning the bus around for reads
system.mem_ctrls.wrPerTurnAround::18                5      0.00%     99.91% # Writes before turning the bus around for reads
system.mem_ctrls.wrPerTurnAround::19              304      0.09%    100.00% # Writes before turning the bus around for reads
system.mem_ctrls.wrPerTurnAround::20                1      0.00%    100.00% # Writes before turning the bus around for reads
system.mem_ctrls.wrPerTurnAround::total        326679                       # Writes before turning the bus around for reads
system.mem_ctrls.bytesReadWrQ                       0                       # Total number of bytes read from write queue
system.mem_ctrls.bytesReadSys               338822208                       # Total read bytes from the system interface side
system.mem_ctrls.bytesWrittenSys            334580800                       # Total written bytes from the system interface side
system.mem_ctrls.avgRdBWSys                    656.58                       # Average system read bandwidth in MiByte/s
system.mem_ctrls.avgWrBWSys                    648.36                       # Average system write bandwidth in MiByte/s
system.mem_ctrls.totGap                  516038011000                       # Total gap between requests
system.mem_ctrls.avgGap                      49044.08                       # Average gap between requests
system.mem_ctrls.requestorReadBytes::.cpu.inst        37056                       # Per-requestor bytes read from memory
system.mem_ctrls.requestorReadBytes::.cpu.data    338785152                       # Per-requestor bytes read from memory
system.mem_ctrls.requestorWriteBytes::.writebacks    334578752                       # Per-requestor bytes write to memory
system.mem_ctrls.requestorReadRate::.cpu.inst 71808.659339296675                       # Per-requestor bytes read from memory rate (Bytes/sec)
system.mem_ctrls.requestorReadRate::.cpu.data 656511970.239093422890                       # Per-requestor bytes read from memory rate (Bytes/sec)
system.mem_ctrls.requestorWriteRate::.writebacks 648360633.218237996101                       # Per-requestor bytes write to memory rate (Bytes/sec)
system.mem_ctrls.requestorReadAccesses::.cpu.inst          579                       # Per-requestor read serviced memory accesses
system.mem_ctrls.requestorReadAccesses::.cpu.data      5293518                       # Per-requestor read serviced memory accesses
system.mem_ctrls.requestorWriteAccesses::.writebacks      5227825                       # Per-requestor write serviced memory accesses
system.mem_ctrls.requestorReadTotalLat::.cpu.inst     17024000                       # Per-requestor read total memory access latency
system.mem_ctrls.requestorReadTotalLat::.cpu.data 157595979750                       # Per-requestor read total memory access latency
system.mem_ctrls.requestorWriteTotalLat::.writebacks 12561589101250                       # Per-requestor write total memory access latency
system.mem_ctrls.requestorReadAvgLat::.cpu.inst     29402.42                       # Per-requestor read average memory access latency
system.mem_ctrls.requestorReadAvgLat::.cpu.data     29771.50                       # Per-requestor read average memory access latency
system.mem_ctrls.requestorWriteAvgLat::.writebacks   2402832.75                       # Per-requestor write average memory access latency
system.mem_ctrls.dram.bytes_read::.cpu.inst        37056                       # Number of bytes read from this memory
system.mem_ctrls.dram.bytes_read::.cpu.data    338785152                       # Number of bytes read from this memory
system.mem_ctrls.dram.bytes_read::total     338822208                       # Number of bytes read from this memory
system.mem_ctrls.dram.bytes_inst_read::.cpu.inst        37056                       # Number of instructions bytes read from this memory
system.mem_ctrls.dram.bytes_inst_read::total        37056                       # Number of instructions bytes read from this memory
system.mem_ctrls.dram.bytes_written::.writebacks    334580800                       # Number of bytes written to this memory
system.mem_ctrls.dram.bytes_written::total    334580800                       # Number of bytes written to this memory
system.mem_ctrls.dram.num_reads::.cpu.inst          579                       # Number of read requests responded to by this memory
system.mem_ctrls.dram.num_reads::.cpu.data      5293518                       # Number of read requests responded to by this memory
system.mem_ctrls.dram.num_reads::total        5294097                       # Number of read requests responded to by this memory
system.mem_ctrls.dram.num_writes::.writebacks      5227825                       # Number of write requests responded to by this memory
system.mem_ctrls.dram.num_writes::total       5227825                       # Number of write requests responded to by this memory
system.mem_ctrls.dram.bw_read::.cpu.inst        71809                       # Total read bandwidth from this memory (bytes/s)
system.mem_ctrls.dram.bw_read::.cpu.data    656511970                       # Total read bandwidth from this memory (bytes/s)
system.mem_ctrls.dram.bw_read::total        656583779                       # Total read bandwidth from this memory (bytes/s)
system.mem_ctrls.dram.bw_inst_read::.cpu.inst        71809                       # Instruction read bandwidth from this memory (bytes/s)
system.mem_ctrls.dram.bw_inst_read::total        71809                       # Instruction read bandwidth from this memory (bytes/s)
system.mem_ctrls.dram.bw_write::.writebacks    648364602                       # Write bandwidth from this memory (bytes/s)
system.mem_ctrls.dram.bw_write::total       648364602                       # Write bandwidth from this memory (bytes/s)
system.mem_ctrls.dram.bw_total::.writebacks    648364602                       # Total bandwidth to/from this memory (bytes/s)
system.mem_ctrls.dram.bw_total::.cpu.inst        71809                       # Total bandwidth to/from this memory (bytes/s)
system.mem_ctrls.dram.bw_total::.cpu.data    656511970                       # Total bandwidth to/from this memory (bytes/s)
system.mem_ctrls.dram.bw_total::total      1304948381                       # Total bandwidth to/from this memory (bytes/s)
system.mem_ctrls.dram.readBursts              5294097                       # Number of DRAM read bursts
system.mem_ctrls.dram.writeBursts             5227793                       # Number of DRAM write bursts
system.mem_ctrls.dram.perBankRdBursts::0       330853                       # Per bank write bursts
system.mem_ctrls.dram.perBankRdBursts::1       330877                       # Per bank write bursts
system.mem_ctrls.dram.perBankRdBursts::2       331021                       # Per bank write bursts
system.mem_ctrls.dram.perBankRdBursts::3       330919                       # Per bank write bursts
system.mem_ctrls.dram.perBankRdBursts::4       331021                       # Per bank write bursts
system.mem_ctrls.dram.perBankRdBursts::5       330985                       # Per bank write bursts
system.mem_ctrls.dram.perBankRdBursts::6       331005                       # Per bank write bursts
system.mem_ctrls.dram.perBankRdBursts::7       330774                       # Per bank write bursts
system.mem_ctrls.dram.perBankRdBursts::8       330795                       # Per bank write bursts
system.mem_ctrls.dram.perBankRdBursts::9       330787                       # Per bank write bursts
system.mem_ctrls.dram.perBankRdBursts::10       330848                       # Per bank write bursts
system.mem_ctrls.dram.perBankRdBursts::11       330896                       # Per bank write bursts
system.mem_ctrls.dram.perBankRdBursts::12       330900                       # Per bank write bursts
system.mem_ctrls.dram.perBankRdBursts::13       330824                       # Per bank write bursts
system.mem_ctrls.dram.perBankRdBursts::14       330855                       # Per bank write bursts
system.mem_ctrls.dram.perBankRdBursts::15       330737                       # Per bank write bursts
system.mem_ctrls.dram.perBankWrBursts::0       326671                       # Per bank write bursts
system.mem_ctrls.dram.perBankWrBursts::1       326716                       # Per bank write bursts
system.mem_ctrls.dram.perBankWrBursts::2       326872                       # Per bank write bursts
system.mem_ctrls.dram.perBankWrBursts::3       326784                       # Per bank write bursts
system.mem_ctrls.dram.perBankWrBursts::4       326848                       # Per bank write bursts
system.mem_ctrls.dram.perBankWrBursts::5       326848                       # Per bank write bursts
system.mem_ctrls.dram.perBankWrBursts::6       326829                       # Per bank write bursts
system.mem_ctrls.dram.perBankWrBursts::7       326658                       # Per bank write bursts
system.mem_ctrls.dram.perBankWrBursts::8       326656                       # Per bank write bursts
system.mem_ctrls.dram.perBankWrBursts::9       326656                       # Per bank write bursts
system.mem_ctrls.dram.perBankWrBursts::10       326686                       # Per bank write bursts
system.mem_ctrls.dram.perBankWrBursts::11       326774                       # Per bank write bursts
system.mem_ctrls.dram.perBankWrBursts::12       326789                       # Per bank write bursts
system.mem_ctrls.dram.perBankWrBursts::13       326710                       # Per bank write bursts
system.mem_ctrls.dram.perBankWrBursts::14       326734                       # Per bank write bursts
system.mem_ctrls.dram.perBankWrBursts::15       326562                       # Per bank write bursts
system.mem_ctrls.dram.totQLat             58348685000                       # Total ticks spent queuing
system.mem_ctrls.dram.totBusLat           26470485000                       # Total ticks spent in databus transfers
system.mem_ctrls.dram.totMemAccLat       157613003750                       # Total ticks spent from burst creation until serviced by the DRAM
system.mem_ctrls.dram.avgQLat                11021.46                       # Average queueing delay per DRAM burst
system.mem_ctrls.dram.avgBusLat               5000.00                       # Average bus latency per DRAM burst
system.mem_ctrls.dram.avgMemAccLat           29771.46                       # Average memory access latency per DRAM burst
system.mem_ctrls.dram.readRowHits             4864392                       # Number of row buffer hits during reads
system.mem_ctrls.dram.writeRowHits            4855322                       # Number of row buffer hits during writes
system.mem_ctrls.dram.readRowHitRate            91.88                       # Row buffer hit rate for reads
system.mem_ctrls.dram.writeRowHitRate           92.88                       # Row buffer hit rate for writes
system.mem_ctrls.dram.bytesPerActivate::samples       802175                       # Bytes accessed per row activation
system.mem_ctrls.dram.bytesPerActivate::mean   839.467697                       # Bytes accessed per row activation
system.mem_ctrls.dram.bytesPerActivate::gmean   740.362003                       # Bytes accessed per row activation
system.mem_ctrls.dram.bytesPerActivate::stdev   294.483662                       # Bytes accessed per row activation
system.mem_ctrls.dram.bytesPerActivate::0-127        18891      2.35%      2.35% # Bytes accessed per row activation
system.mem_ctrls.dram.bytesPerActivate::128-255        30974      3.86%      6.22% # Bytes accessed per row activation
system.mem_ctrls.dram.bytesPerActivate::256-383        35832      4.47%     10.68% # Bytes accessed per row activation
system.mem_ctrls.dram.bytesPerActivate::384-511        51950      6.48%     17.16% # Bytes accessed per row activation
system.mem_ctrls.dram.bytesPerActivate::512-639        39759      4.96%     22.12% # Bytes accessed per row activation
system.mem_ctrls.dram.bytesPerActivate::640-767        44776      5.58%     27.70% # Bytes accessed per row activation
system.mem_ctrls.dram.bytesPerActivate::768-895        28290      3.53%     31.22% # Bytes accessed per row activation
system.mem_ctrls.dram.bytesPerActivate::896-1023        29514      3.68%     34.90% # Bytes accessed per row activation
system.mem_ctrls.dram.bytesPerActivate::1024-1151       522189     65.10%    100.00% # Bytes accessed per row activation
system.mem_ctrls.dram.bytesPerActivate::total       802175                       # Bytes accessed per row activation
system.mem_ctrls.dram.bytesRead             338822208                       # Total number of bytes read from DRAM
system.mem_ctrls.dram.bytesWritten          334578752                       # Total number of bytes written to DRAM
system.mem_ctrls.dram.avgRdBW              656.583779                       # Average DRAM read bandwidth in MiBytes/s
system.mem_ctrls.dram.avgWrBW              648.360633                       # Average DRAM write bandwidth in MiBytes/s
system.mem_ctrls.dram.peakBW                 12800.00                       # Theoretical peak bandwidth in MiByte/s
system.mem_ctrls.dram.busUtil                   10.19                       # Data bus utilization in percentage
system.mem_ctrls.dram.busUtilRead                5.13                       # Data bus utilization in percentage for reads
system.mem_ctrls.dram.busUtilWrite               5.07                       # Data bus utilization in percentage for writes
system.mem_ctrls.dram.pageHitRate               92.38                       # Row buffer hit rate, read and write combined
system.mem_ctrls.dram.rank1.actEnergy      2862590220                       # Energy for activate commands per rank (pJ)
system.mem_ctrls.dram.rank1.preEnergy      1521498990                       # Energy for precharge commands per rank (pJ)
system.mem_ctrls.dram.rank1.readEnergy    18897023880                       # Energy for read commands per rank (pJ)
system.mem_ctrls.dram.rank1.writeEnergy   13642819740                       # Energy for write commands per rank (pJ)
system.mem_ctrls.dram.rank1.refreshEnergy 40735266000.000008                       # Energy for refresh commands per rank (pJ)
system.mem_ctrls.dram.rank1.actBackEnergy 123540720990                       # Energy for active background per rank (pJ)
system.mem_ctrls.dram.rank1.preBackEnergy  94124316960                       # Energy for precharge background per rank (pJ)
system.mem_ctrls.dram.rank1.actPowerDownEnergy            0                       # Energy for active power-down per rank (pJ)
system.mem_ctrls.dram.rank1.prePowerDownEnergy            0                       # Energy for precharge power-down per rank (pJ)
system.mem_ctrls.dram.rank1.selfRefreshEnergy            0                       # Energy for self refresh per rank (pJ)
system.mem_ctrls.dram.rank1.totalEnergy  295324236780                       # Total energy per rank (pJ)
system.mem_ctrls.dram.rank1.averagePower   572.291600                       # Core power per rank (mW)
system.mem_ctrls.dram.rank1.totalIdleTime            0                       # Total Idle time Per DRAM Rank
system.mem_ctrls.dram.rank1.pwrStateTime::IDLE 240889984500                       # Time in different power states
system.mem_ctrls.dram.rank1.pwrStateTime::REF  17231500000                       # Time in different power states
system.mem_ctrls.dram.rank1.pwrStateTime::SREF            0                       # Time in different power states
system.mem_ctrls.dram.rank1.pwrStateTime::PRE_PDN            0                       # Time in different power states
system.mem_ctrls.dram.rank1.pwrStateTime::ACT 257916558000                       # Time in different power states
system.mem_ctrls.dram.rank1.pwrStateTime::ACT_PDN            0                       # Time in different power states
system.mem_ctrls.dram.rank0.actEnergy      2864946420                       # Energy for activate commands per rank (pJ)
system.mem_ctrls.dram.rank0.preEnergy      1522755135                       # Energy for precharge commands per rank (pJ)
system.mem_ctrls.dram.rank0.readEnergy    18902828700                       # Energy for read commands per rank (pJ)
system.mem_ctrls.dram.rank0.writeEnergy   13646259720                       # Energy for write commands per rank (pJ)
system.mem_ctrls.dram.rank0.refreshEnergy 40735266000.000008                       # Energy for refresh commands per rank (pJ)
system.mem_ctrls.dram.rank0.actBackEnergy 123471607350                       # Energy for active background per rank (pJ)
system.mem_ctrls.dram.rank0.preBackEnergy  94182517920                       # Energy for precharge background per rank (pJ)
system.mem_ctrls.dram.rank0.actPowerDownEnergy            0                       # Energy for active power-down per rank (pJ)
system.mem_ctrls.dram.rank0.prePowerDownEnergy            0                       # Energy for precharge power-down per rank (pJ)
system.mem_ctrls.dram.rank0.selfRefreshEnergy            0                       # Energy for self refresh per rank (pJ)
system.mem_ctrls.dram.rank0.totalEnergy  295326181245                       # Total energy per rank (pJ)
system.mem_ctrls.dram.rank0.averagePower   572.295368                       # Core power per rank (mW)
system.mem_ctrls.dram.rank0.totalIdleTime            0                       # Total Idle time Per DRAM Rank
system.mem_ctrls.dram.rank0.pwrStateTime::IDLE 241040901500                       # Time in different power states
system.mem_ctrls.dram.rank0.pwrStateTime::REF  17231500000                       # Time in different power states
system.mem_ctrls.dram.rank0.pwrStateTime::SREF            0                       # Time in different power states
system.mem_ctrls.dram.rank0.pwrStateTime::PRE_PDN            0                       # Time in different power states
system.mem_ctrls.dram.rank0.pwrStateTime::ACT 257765641000                       # Time in different power states
system.mem_ctrls.dram.rank0.pwrStateTime::ACT_PDN            0                       # Time in different power states
system.mem_ctrls.dram.power_state.pwrStateResidencyTicks::UNDEFINED 516038042500                       # Cumulative time (in ticks) in various power states
system.mem_ctrls.power_state.pwrStateResidencyTicks::UNDEFINED 516038042500                       # Cumulative time (in ticks) in various power states
system.cpu_clk_domain.clock                       500                       # Clock period in ticks
system.cpu.icache.demand_hits::.cpu.inst     32340865                       # number of demand (read+write) hits
system.cpu.icache.demand_hits::total         32340865                       # number of demand (read+write) hits
system.cpu.icache.overall_hits::.cpu.inst     32340865                       # number of overall hits
system.cpu.icache.overall_hits::total        32340865                       # number of overall hits
system.cpu.icache.demand_misses::.cpu.inst          612                       # number of demand (read+write) misses
system.cpu.icache.demand_misses::total            612                       # number of demand (read+write) misses
system.cpu.icache.overall_misses::.cpu.inst          612                       # number of overall misses
system.cpu.icache.overall_misses::total           612                       # number of overall misses
system.cpu.icache.demand_miss_latency::.cpu.inst     48422500                       # number of demand (read+write) miss cycles
system.cpu.icache.demand_miss_latency::total     48422500                       # number of demand (read+write) miss cycles
system.cpu.icache.overall_miss_latency::.cpu.inst     48422500                       # number of overall miss cycles
system.cpu.icache.overall_miss_latency::total     48422500                       # number of overall miss cycles
system.cpu.icache.demand_accesses::.cpu.inst     32341477                       # number of demand (read+write) accesses
system.cpu.icache.demand_accesses::total     32341477                       # number of demand (read+write) accesses
system.cpu.icache.overall_accesses::.cpu.inst     32341477                       # number of overall (read+write) accesses
system.cpu.icache.overall_accesses::total     32341477                       # number of overall (read+write) accesses
system.cpu.icache.demand_miss_rate::.cpu.inst     0.000019                       # miss rate for demand accesses
system.cpu.icache.demand_miss_rate::total     0.000019                       # miss rate for demand accesses
system.cpu.icache.overall_miss_rate::.cpu.inst     0.000019                       # miss rate for overall accesses
system.cpu.icache.overall_miss_rate::total     0.000019                       # miss rate for overall accesses
system.cpu.icache.demand_avg_miss_latency::.cpu.inst 79121.732026                       # average overall miss latency
system.cpu.icache.demand_avg_miss_latency::total 79121.732026                       # average overall miss latency
system.cpu.icache.overall_avg_miss_latency::.cpu.inst 79121.732026                       # average overall miss latency
system.cpu.icache.overall_avg_miss_latency::total 79121.732026                       # average overall miss latency
system.cpu.icache.blocked_cycles::no_mshrs            0                       # number of cycles access was blocked
system.cpu.icache.blocked_cycles::no_targets            0                       # number of cycles access was blocked
system.cpu.icache.blocked::no_mshrs                 0                       # number of cycles access was blocked
system.cpu.icache.blocked::no_targets               0                       # number of cycles access was blocked
system.cpu.icache.avg_blocked_cycles::no_mshrs          nan                       # average number of cycles each access was blocked
system.cpu.icache.avg_blocked_cycles::no_targets          nan                       # average number of cycles each access was blocked
system.cpu.icache.writebacks::.writebacks          204                       # number of writebacks
system.cpu.icache.writebacks::total               204                       # number of writebacks
system.cpu.icache.demand_mshr_misses::.cpu.inst          612                       # number of demand (read+write) MSHR misses
system.cpu.icache.demand_mshr_misses::total          612                       # number of demand (read+write) MSHR misses
system.cpu.icache.overall_mshr_misses::.cpu.inst          612                       # number of overall MSHR misses
system.cpu.icache.overall_mshr_misses::total          612                       # number of overall MSHR misses
system.cpu.icache.demand_mshr_miss_latency::.cpu.inst     47810500                       # number of demand (read+write) MSHR miss cycles
system.cpu.icache.demand_mshr_miss_latency::total     47810500                       # number of demand (read+write) MSHR miss cycles
system.cpu.icache.overall_mshr_miss_latency::.cpu.inst     47810500                       # number of overall MSHR miss cycles
system.cpu.icache.overall_mshr_miss_latency::total     47810500                       # number of overall MSHR miss cycles
system.cpu.icache.demand_mshr_miss_rate::.cpu.inst     0.000019                       # mshr miss rate for demand accesses
system.cpu.icache.demand_mshr_miss_rate::total     0.000019                       # mshr miss rate for demand accesses
system.cpu.icache.overall_mshr_miss_rate::.cpu.inst     0.000019                       # mshr miss rate for overall accesses
system.cpu.icache.overall_mshr_miss_rate::total     0.000019                       # mshr miss rate for overall accesses
system.cpu.icache.demand_avg_mshr_miss_latency::.cpu.inst 78121.732026                       # average overall mshr miss latency
system.cpu.icache.demand_avg_mshr_miss_latency::total 78121.732026                       # average overall mshr miss latency
system.cpu.icache.overall_avg_mshr_miss_latency::.cpu.inst 78121.732026                       # average overall mshr miss latency
system.cpu.icache.overall_avg_mshr_miss_latency::total 78121.732026                       # average overall mshr miss latency
system.cpu.icache.replacements                    204                       # number of replacements
system.cpu.icache.ReadReq_hits::.cpu.inst     32340865                       # number of ReadReq hits
system.cpu.icache.ReadReq_hits::total        32340865                       # number of ReadReq hits
system.cpu.icache.ReadReq_misses::.cpu.inst          612                       # number of ReadReq misses
system.cpu.icache.ReadReq_misses::total           612                       # number of ReadReq misses
system.cpu.icache.ReadReq_miss_latency::.cpu.inst     48422500                       # number of ReadReq miss cycles
system.cpu.icache.ReadReq_miss_latency::total     48422500                       # number of ReadReq miss cycles
system.cpu.icache.ReadReq_accesses::.cpu.inst     32341477                       # number of ReadReq accesses(hits+misses)
system.cpu.icache.ReadReq_accesses::total     32341477                       # number of ReadReq accesses(hits+misses)
[...]
system.cpu.dcache.ReadReq_mshr_miss_rate::.cpu.data     0.000156                       # mshr miss rate for ReadReq accesses
system.cpu.dcache.ReadReq_mshr_miss_rate::total     0.000156                       # mshr miss rate for ReadReq accesses
system.cpu.dcache.ReadReq_avg_mshr_miss_latency::.cpu.data 76840.909091                       # average ReadReq mshr miss latency
system.cpu.dcache.ReadReq_avg_mshr_miss_latency::total 76840.909091                       # average ReadReq mshr miss latency
system.cpu.dcache.WriteReq_hits::.cpu.data     74241828                       # number of WriteReq hits
system.cpu.dcache.WriteReq_hits::total       74241828                       # number of WriteReq hits
system.cpu.dcache.WriteReq_misses::.cpu.data     10584207                       # number of WriteReq misses
system.cpu.dcache.WriteReq_misses::total     10584207                       # number of WriteReq misses
system.cpu.dcache.WriteReq_miss_latency::.cpu.data 881491123999                       # number of WriteReq miss cycles
system.cpu.dcache.WriteReq_miss_latency::total 881491123999                       # number of WriteReq miss cycles
system.cpu.dcache.WriteReq_accesses::.cpu.data     84826035                       # number of WriteReq accesses(hits+misses)
system.cpu.dcache.WriteReq_accesses::total     84826035                       # number of WriteReq accesses(hits+misses)
system.cpu.dcache.WriteReq_miss_rate::.cpu.data     0.124775                       # miss rate for WriteReq accesses
system.cpu.dcache.WriteReq_miss_rate::total     0.124775                       # miss rate for WriteReq accesses
system.cpu.dcache.WriteReq_avg_miss_latency::.cpu.data 83283.624744                       # average WriteReq miss latency
system.cpu.dcache.WriteReq_avg_miss_latency::total 83283.624744                       # average WriteReq miss latency
system.cpu.dcache.WriteReq_mshr_hits::.cpu.data      5290868                       # number of WriteReq MSHR hits
system.cpu.dcache.WriteReq_mshr_hits::total      5290868                       # number of WriteReq MSHR hits
system.cpu.dcache.WriteReq_mshr_misses::.cpu.data      5293339                       # number of WriteReq MSHR misses
system.cpu.dcache.WriteReq_mshr_misses::total      5293339                       # number of WriteReq MSHR misses
system.cpu.dcache.WriteReq_mshr_miss_latency::.cpu.data 434238724000                       # number of WriteReq MSHR miss cycles
system.cpu.dcache.WriteReq_mshr_miss_latency::total 434238724000                       # number of WriteReq MSHR miss cycles
system.cpu.dcache.WriteReq_mshr_miss_rate::.cpu.data     0.062402                       # mshr miss rate for WriteReq accesses
system.cpu.dcache.WriteReq_mshr_miss_rate::total     0.062402                       # mshr miss rate for WriteReq accesses
system.cpu.dcache.WriteReq_avg_mshr_miss_latency::.cpu.data 82034.935605                       # average WriteReq mshr miss latency
system.cpu.dcache.WriteReq_avg_mshr_miss_latency::total 82034.935605                       # average WriteReq mshr miss latency
system.cpu.dcache.SoftPFReq_hits::.cpu.data           18                       # number of SoftPFReq hits
system.cpu.dcache.SoftPFReq_hits::total            18                       # number of SoftPFReq hits
system.cpu.dcache.SoftPFReq_misses::.cpu.data           33                       # number of SoftPFReq misses
system.cpu.dcache.SoftPFReq_misses::total           33                       # number of SoftPFReq misses
system.cpu.dcache.SoftPFReq_accesses::.cpu.data           51                       # number of SoftPFReq accesses(hits+misses)
system.cpu.dcache.SoftPFReq_accesses::total           51                       # number of SoftPFReq accesses(hits+misses)
system.cpu.dcache.SoftPFReq_miss_rate::.cpu.data     0.647059                       # miss rate for SoftPFReq accesses
system.cpu.dcache.SoftPFReq_miss_rate::total     0.647059                       # miss rate for SoftPFReq accesses
system.cpu.dcache.SoftPFReq_mshr_misses::.cpu.data           28                       # number of SoftPFReq MSHR misses
system.cpu.dcache.SoftPFReq_mshr_misses::total           28                       # number of SoftPFReq MSHR misses
system.cpu.dcache.SoftPFReq_mshr_miss_latency::.cpu.data      2199000                       # number of SoftPFReq MSHR miss cycles
system.cpu.dcache.SoftPFReq_mshr_miss_latency::total      2199000                       # number of SoftPFReq MSHR miss cycles
system.cpu.dcache.SoftPFReq_mshr_miss_rate::.cpu.data     0.549020                       # mshr miss rate for SoftPFReq accesses
system.cpu.dcache.SoftPFReq_mshr_miss_rate::total     0.549020                       # mshr miss rate for SoftPFReq accesses
system.cpu.dcache.SoftPFReq_avg_mshr_miss_latency::.cpu.data 78535.714286                       # average SoftPFReq mshr miss latency
system.cpu.dcache.SoftPFReq_avg_mshr_miss_latency::total 78535.714286                       # average SoftPFReq mshr miss latency
system.cpu.dcache.LoadLockedReq_hits::.cpu.data           50                       # number of LoadLockedReq hits
system.cpu.dcache.LoadLockedReq_hits::total           50                       # number of LoadLockedReq hits
system.cpu.dcache.LoadLockedReq_misses::.cpu.data            1                       # number of LoadLockedReq misses
system.cpu.dcache.LoadLockedReq_misses::total            1                       # number of LoadLockedReq misses
system.cpu.dcache.LoadLockedReq_miss_latency::.cpu.data        74500                       # number of LoadLockedReq miss cycles
system.cpu.dcache.LoadLockedReq_miss_latency::total        74500                       # number of LoadLockedReq miss cycles
system.cpu.dcache.LoadLockedReq_accesses::.cpu.data           51                       # number of LoadLockedReq accesses(hits+misses)
system.cpu.dcache.LoadLockedReq_accesses::total           51                       # number of LoadLockedReq accesses(hits+misses)
system.cpu.dcache.LoadLockedReq_miss_rate::.cpu.data     0.019608                       # miss rate for LoadLockedReq accesses
system.cpu.dcache.LoadLockedReq_miss_rate::total     0.019608                       # miss rate for LoadLockedReq accesses
system.cpu.dcache.LoadLockedReq_avg_miss_latency::.cpu.data        74500                       # average LoadLockedReq miss latency
system.cpu.dcache.LoadLockedReq_avg_miss_latency::total        74500                       # average LoadLockedReq miss latency
system.cpu.dcache.LoadLockedReq_mshr_misses::.cpu.data            1                       # number of LoadLockedReq MSHR misses
system.cpu.dcache.LoadLockedReq_mshr_misses::total            1                       # number of LoadLockedReq MSHR misses
system.cpu.dcache.LoadLockedReq_mshr_miss_latency::.cpu.data        73500                       # number of LoadLockedReq MSHR miss cycles
system.cpu.dcache.LoadLockedReq_mshr_miss_latency::total        73500                       # number of LoadLockedReq MSHR miss cycles
system.cpu.dcache.LoadLockedReq_mshr_miss_rate::.cpu.data     0.019608                       # mshr miss rate for LoadLockedReq accesses
system.cpu.dcache.LoadLockedReq_mshr_miss_rate::total     0.019608                       # mshr miss rate for LoadLockedReq accesses
system.cpu.dcache.LoadLockedReq_avg_mshr_miss_latency::.cpu.data        73500                       # average LoadLockedReq mshr miss latency
system.cpu.dcache.LoadLockedReq_avg_mshr_miss_latency::total        73500                       # average LoadLockedReq mshr miss latency
system.cpu.dcache.StoreCondReq_hits::.cpu.data           51                       # number of StoreCondReq hits
system.cpu.dcache.StoreCondReq_hits::total           51                       # number of StoreCondReq hits
system.cpu.dcache.StoreCondReq_accesses::.cpu.data           51                       # number of StoreCondReq accesses(hits+misses)
system.cpu.dcache.StoreCondReq_accesses::total           51                       # number of StoreCondReq accesses(hits+misses)
system.cpu.dcache.power_state.pwrStateResidencyTicks::UNDEFINED 516038042500                       # Cumulative time (in ticks) in various power states
system.cpu.dcache.tags.tagsinuse          1023.519961                       # Cycle average of tags in use
system.cpu.dcache.tags.total_refs            80804308                       # Total number of references to valid blocks.
system.cpu.dcache.tags.sampled_refs           5293565                       # Sample count of references to valid blocks.
system.cpu.dcache.tags.avg_refs             15.264629                       # Average number of references to valid blocks.
system.cpu.dcache.tags.warmup_cycle            176500                       # Cycle when the warmup percentage was hit.
system.cpu.dcache.tags.occ_blocks::.cpu.data  1023.519961                       # Average occupied blocks per requestor
system.cpu.dcache.tags.occ_percent::.cpu.data     0.999531                       # Average percentage of cache occupancy
system.cpu.dcache.tags.occ_percent::total     0.999531                       # Average percentage of cache occupancy
system.cpu.dcache.tags.occ_task_id_blocks::1024         1024                       # Occupied blocks per task id
system.cpu.dcache.tags.age_task_id_blocks_1024::0          105                       # Occupied blocks per task id
system.cpu.dcache.tags.age_task_id_blocks_1024::1          919                       # Occupied blocks per task id
system.cpu.dcache.tags.occ_task_id_percent::1024            1                       # Percentage of cache occupancy per task id
system.cpu.dcache.tags.tag_accesses         177483951                       # Number of tag accesses
system.cpu.dcache.tags.data_accesses        177483951                       # Number of data accesses
system.cpu.dcache.tags.power_state.pwrStateResidencyTicks::UNDEFINED 516038042500                       # Cumulative time (in ticks) in various power states
system.cpu.power_state.pwrStateResidencyTicks::ON 516038042500                       # Cumulative time (in ticks) in various power states
system.cpu.branchPred.lookups                10718628                       # Number of BP lookups
system.cpu.branchPred.condPredicted          10710447                       # Number of conditional branches predicted
system.cpu.branchPred.condIncorrect              1366                       # Number of conditional branches incorrect
system.cpu.branchPred.BTBLookups             10711231                       # Number of BTB lookups
system.cpu.branchPred.BTBHits                10709892                       # Number of BTB hits
system.cpu.branchPred.BTBHitPct             99.987499                       # BTB Hit Percentage
system.cpu.branchPred.RASUsed                    2654                       # Number of times the RAS was used to get a target.
system.cpu.branchPred.RASIncorrect                  8                       # Number of incorrect RAS predictions.
system.cpu.branchPred.indirectLookups             140                       # Number of indirect predictor lookups.
system.cpu.branchPred.indirectHits                  7                       # Number of indirect target hits.
system.cpu.branchPred.indirectMisses              133                       # Number of indirect misses.
system.cpu.branchPred.indirectMispredicted           92                       # Number of mispredicted indirect branches.
system.cpu.fetch2.intInstructions            45539273                       # Number of integer instructions successfully decoded
system.cpu.fetch2.fpInstructions                    0                       # Number of floating point instructions successfully decoded
system.cpu.fetch2.vecInstructions                   0                       # Number of SIMD instructions successfully decoded
system.cpu.fetch2.loadInstructions            1309356                       # Number of memory load instructions successfully decoded
system.cpu.fetch2.storeInstructions            171645                       # Number of memory store instructions successfully decoded
system.cpu.fetch2.amoInstructions                   0                       # Number of memory atomic instructions successfully decoded
system.cpu.itb.instHits                             0                       # ITB inst hits
system.cpu.itb.instMisses                           0                       # ITB inst misses
system.cpu.itb.readHits                             0                       # DTB read hits
system.cpu.itb.readMisses                           0                       # DTB read misses
system.cpu.itb.writeHits                            0                       # DTB write hits
system.cpu.itb.writeMisses                          0                       # DTB write misses
system.cpu.itb.inserts                              0                       # Number of times an entry is inserted into the TLB
system.cpu.itb.flushTlb                             0                       # Number of times complete TLB was flushed
system.cpu.itb.flushTlbMva                          0                       # Number of times TLB was flushed by MVA
system.cpu.itb.flushTlbMvaAsid                      0                       # Number of times TLB was flushed by MVA & ASID
system.cpu.itb.flushTlbAsid                         0                       # Number of times TLB was flushed by ASID
system.cpu.itb.flushedEntries                       0                       # Number of entries that have been flushed from TLB
system.cpu.itb.alignFaults                          0                       # Number of TLB faults due to alignment restrictions
system.cpu.itb.prefetchFaults                       0                       # Number of TLB faults due to prefetch
system.cpu.itb.domainFaults                         0                       # Number of TLB faults due to domain restrictions
system.cpu.itb.permsFaults                          0                       # Number of TLB faults due to permissions restrictions
system.cpu.itb.readAccesses                         0                       # DTB read accesses
system.cpu.itb.writeAccesses                        0                       # DTB write accesses
system.cpu.itb.instAccesses                         0                       # ITB inst accesses
system.cpu.itb.hits                                 0                       # Total TLB (inst and data) hits
system.cpu.itb.misses                               0                       # Total TLB (inst and data) misses
system.cpu.itb.accesses                             0                       # Total TLB (inst and data) accesses
system.cpu.itb.walker.walks                         0                       # Table walker walks requested
system.cpu.itb.walker.requestOrigin_Requested::Data            0                       # Table walker requests started/completed, data/inst
system.cpu.itb.walker.requestOrigin_Requested::Inst            0                       # Table walker requests started/completed, data/inst
system.cpu.itb.walker.requestOrigin_Requested::total            0                       # Table walker requests started/completed, data/inst
system.cpu.itb.walker.requestOrigin_Completed::Data            0                       # Table walker requests started/completed, data/inst
system.cpu.itb.walker.requestOrigin_Completed::Inst            0                       # Table walker requests started/completed, data/inst
system.cpu.itb.walker.requestOrigin_Completed::total            0                       # Table walker requests started/completed, data/inst
system.cpu.itb.walker.requestOrigin::total            0                       # Table walker requests started/completed, data/inst
system.cpu.itb.walker.power_state.pwrStateResidencyTicks::UNDEFINED 516038042500                       # Cumulative time (in ticks) in various power states
system.cpu.itb.stage2_mmu.stage2_tlb.instHits            0                       # ITB inst hits
system.cpu.itb.stage2_mmu.stage2_tlb.instMisses            0                       # ITB inst misses
system.cpu.itb.stage2_mmu.stage2_tlb.readHits            0                       # DTB read hits
system.cpu.itb.stage2_mmu.stage2_tlb.readMisses            0                       # DTB read misses
system.cpu.itb.stage2_mmu.stage2_tlb.writeHits            0                       # DTB write hits
system.cpu.itb.stage2_mmu.stage2_tlb.writeMisses            0                       # DTB write misses
system.cpu.itb.stage2_mmu.stage2_tlb.inserts            0                       # Number of times an entry is inserted into the TLB
system.cpu.itb.stage2_mmu.stage2_tlb.flushTlb            0                       # Number of times complete TLB was flushed
system.cpu.itb.stage2_mmu.stage2_tlb.flushTlbMva            0                       # Number of times TLB was flushed by MVA
system.cpu.itb.stage2_mmu.stage2_tlb.flushTlbMvaAsid            0                       # Number of times TLB was flushed by MVA & ASID
system.cpu.itb.stage2_mmu.stage2_tlb.flushTlbAsid            0                       # Number of times TLB was flushed by ASID
system.cpu.itb.stage2_mmu.stage2_tlb.flushedEntries            0                       # Number of entries that have been flushed from TLB
system.cpu.itb.stage2_mmu.stage2_tlb.alignFaults            0                       # Number of TLB faults due to alignment restrictions
system.cpu.itb.stage2_mmu.stage2_tlb.prefetchFaults            0                       # Number of TLB faults due to prefetch
system.cpu.itb.stage2_mmu.stage2_tlb.domainFaults            0                       # Number of TLB faults due to domain restrictions
system.cpu.itb.stage2_mmu.stage2_tlb.permsFaults            0                       # Number of TLB faults due to permissions restrictions
system.cpu.itb.stage2_mmu.stage2_tlb.readAccesses            0                       # DTB read accesses
system.cpu.itb.stage2_mmu.stage2_tlb.writeAccesses            0                       # DTB write accesses
system.cpu.itb.stage2_mmu.stage2_tlb.instAccesses            0                       # ITB inst accesses
system.cpu.itb.stage2_mmu.stage2_tlb.hits            0                       # Total TLB (inst and data) hits
system.cpu.itb.stage2_mmu.stage2_tlb.misses            0                       # Total TLB (inst and data) misses
system.cpu.itb.stage2_mmu.stage2_tlb.accesses            0                       # Total TLB (inst and data) accesses
system.cpu.itb.stage2_mmu.stage2_tlb.walker.walks            0                       # Table walker walks requested
system.cpu.itb.stage2_mmu.stage2_tlb.walker.requestOrigin_Requested::Data            0                       # Table walker requests started/completed, data/inst
system.cpu.itb.stage2_mmu.stage2_tlb.walker.requestOrigin_Requested::Inst            0                       # Table walker requests started/completed, data/inst
system.cpu.itb.stage2_mmu.stage2_tlb.walker.requestOrigin_Requested::total            0                       # Table walker requests started/completed, data/inst
system.cpu.itb.stage2_mmu.stage2_tlb.walker.requestOrigin_Completed::Data            0                       # Table walker requests started/completed, data/inst
system.cpu.itb.stage2_mmu.stage2_tlb.walker.requestOrigin_Completed::Inst            0                       # Table walker requests started/completed, data/inst
system.cpu.itb.stage2_mmu.stage2_tlb.walker.requestOrigin_Completed::total            0                       # Table walker requests started/completed, data/inst
system.cpu.itb.stage2_mmu.stage2_tlb.walker.requestOrigin::total            0                       # Table walker requests started/completed, data/inst
system.cpu.itb.stage2_mmu.stage2_tlb.walker.power_state.pwrStateResidencyTicks::UNDEFINED 516038042500                       # Cumulative time (in ticks) in various power states

---------- End Simulation Statistics   ----------
