
---------- Begin Simulation Statistics ----------
final_tick                               516193296500                       # Number of ticks from beginning of simulation (restored from checkpoints and never reset)
host_inst_rate                                  66779                       # Simulator instruction rate (inst/s)
host_mem_usage                                 726316                       # Number of bytes of host memory used
host_op_rate                                   123345                       # Simulator op (including micro ops) rate (op/s)
host_seconds                                  1497.47                       # Real time elapsed on the host
host_tick_rate                              344709830                       # Simulator tick rate (ticks/s)
sim_freq                                 1000000000000                       # Frequency of simulated ticks
sim_insts                                   100000001                       # Number of instructions simulated
sim_ops                                     184705555                       # Number of ops (including micro ops) simulated
sim_seconds                                  0.516193                       # Number of seconds simulated
sim_ticks                                516193296500                       # Number of ticks simulated
system.cpu.committedInsts                   100000001                       # Number of instructions committed
system.cpu.committedOps                     184705555                       # Number of ops (including micro ops) committed
system.cpu.cpi                              10.323866                       # CPI: cycles per instruction
system.cpu.discardedOps                          4148                       # Number of ops (including micro ops) which were discarded before commit
system.cpu.idleCycles                       810542218                       # Total number of cycles that the object has spent stopped
system.cpu.ipc                               0.096863                       # IPC: instructions per cycle
system.cpu.numCycles                       1032386593                       # number of cpu cycles simulated
system.cpu.numFetchSuspends                         0                       # Number of times Execute suspended instruction fetching
system.cpu.numWorkItemsCompleted                    0                       # number of work items this cpu completed
system.cpu.numWorkItemsStarted                      0                       # number of work items this cpu started
system.cpu.op_class_0::No_OpClass                   0      0.00%      0.00% # Class of committed instruction
system.cpu.op_class_0::IntAlu                98412611     53.28%     53.28% # Class of committed instruction
system.cpu.op_class_0::IntMult                 114661      0.06%     53.34% # Class of committed instruction
system.cpu.op_class_0::IntDiv                       0      0.00%     53.34% # Class of committed instruction
system.cpu.op_class_0::FloatAdd                     0      0.00%     53.34% # Class of committed instruction
system.cpu.op_class_0::FloatCmp                     0      0.00%     53.34% # Class of committed instruction
system.cpu.op_class_0::FloatCvt                     0      0.00%     53.34% # Class of committed instruction
system.cpu.op_class_0::FloatMult                    0      0.00%     53.34% # Class of committed instruction
system.cpu.op_class_0::FloatMultAcc                 0      0.00%     53.34% # Class of committed instruction
system.cpu.op_class_0::FloatDiv                     0      0.00%     53.34% # Class of committed instruction
system.cpu.op_class_0::FloatMisc                    0      0.00%     53.34% # Class of committed instruction
system.cpu.op_class_0::FloatSqrt                    0      0.00%     53.34% # Class of committed instruction
system.cpu.op_class_0::SimdAdd                      0      0.00%     53.34% # Class of committed instruction
system.cpu.op_class_0::SimdAddAcc                   0      0.00%     53.34% # Class of committed instruction
system.cpu.op_class_0::SimdAlu                      0      0.00%     53.34% # Class of committed instruction
system.cpu.op_class_0::SimdCmp                      0      0.00%     53.34% # Class of committed instruction
system.cpu.op_class_0::SimdCvt                      0      0.00%     53.34% # Class of committed instruction
system.cpu.op_class_0::SimdMisc                     0      0.00%     53.34% # Class of committed instruction
system.cpu.op_class_0::SimdMult                     0      0.00%     53.34% # Class of committed instruction
system.cpu.op_class_0::SimdMultAcc                  0      0.00%     53.34% # Class of committed instruction
system.cpu.op_class_0::SimdShift                    0      0.00%     53.34% # Class of committed instruction
system.cpu.op_class_0::SimdShiftAcc                 0      0.00%     53.34% # Class of committed instruction
system.cpu.op_class_0::SimdDiv                      0      0.00%     53.34% # Class of committed instruction
system.cpu.op_class_0::SimdSqrt                     0      0.00%     53.34% # Class of committed instruction
system.cpu.op_class_0::SimdFloatAdd                 0      0.00%     53.34% # Class of committed instruction
system.cpu.op_class_0::SimdFloatAlu                 0      0.00%     53.34% # Class of committed instruction
system.cpu.op_class_0::SimdFloatCmp                 0      0.00%     53.34% # Class of committed instruction
system.cpu.op_class_0::SimdFloatCvt                 0      0.00%     53.34% # Class of committed instruction
system.cpu.op_class_0::SimdFloatDiv                 0      0.00%     53.34% # Class of committed instruction
system.cpu.op_class_0::SimdFloatMisc                1      0.00%     53.34% # Class of committed instruction
system.cpu.op_class_0::SimdFloatMult                0      0.00%     53.34% # Class of committed instruction
system.cpu.op_class_0::SimdFloatMultAcc             0      0.00%     53.34% # Class of committed instruction
system.cpu.op_class_0::SimdFloatSqrt                0      0.00%     53.34% # Class of committed instruction
system.cpu.op_class_0::SimdReduceAdd                0      0.00%     53.34% # Class of committed instruction
system.cpu.op_class_0::SimdReduceAlu                0      0.00%     53.34% # Class of committed instruction
system.cpu.op_class_0::SimdReduceCmp                0      0.00%     53.34% # Class of committed instruction
system.cpu.op_class_0::SimdFloatReduceAdd            0      0.00%     53.34% # Class of committed instruction
system.cpu.op_class_0::SimdFloatReduceCmp            0      0.00%     53.34% # Class of committed instruction
system.cpu.op_class_0::SimdAes                      0      0.00%     53.34% # Class of committed instruction
system.cpu.op_class_0::SimdAesMix                   0      0.00%     53.34% # Class of committed instruction
system.cpu.op_class_0::SimdSha1Hash                 0      0.00%     53.34% # Class of committed instruction
system.cpu.op_class_0::SimdSha1Hash2                0      0.00%     53.34% # Class of committed instruction
system.cpu.op_class_0::SimdSha256Hash               0      0.00%     53.34% # Class of committed instruction
system.cpu.op_class_0::SimdSha256Hash2              0      0.00%     53.34% # Class of committed instruction
system.cpu.op_class_0::SimdShaSigma2                0      0.00%     53.34% # Class of committed instruction
system.cpu.op_class_0::SimdShaSigma3                0      0.00%     53.34% # Class of committed instruction
system.cpu.op_class_0::SimdPredAlu                  0      0.00%     53.34% # Class of committed instruction
system.cpu.op_class_0::MemRead                1307944      0.71%     54.05% # Class of committed instruction
system.cpu.op_class_0::MemWrite              84870338     45.95%    100.00% # Class of committed instruction
system.cpu.op_class_0::FloatMemRead                 0      0.00%    100.00% # Class of committed instruction
system.cpu.op_class_0::FloatMemWrite                0      0.00%    100.00% # Class of committed instruction
system.cpu.op_class_0::IprAccess                    0      0.00%    100.00% # Class of committed instruction
system.cpu.op_class_0::InstPrefetch                 0      0.00%    100.00% # Class of committed instruction
system.cpu.op_class_0::total                184705555                       # Class of committed instruction
system.cpu.tickCycles                       221844375                       # Number of cycles that the object actually ticked
system.cpu.workload.numSyscalls                    19                       # Number of system calls
system.membus.snoop_filter.hit_multi_requests            0                       # Number of requests hitting in the snoop filter with multiple (>1) holders of the requested data.
system.membus.snoop_filter.hit_multi_snoops            0                       # Number of snoops hitting in the snoop filter with multiple (>1) holders of the requested data.
system.membus.snoop_filter.hit_single_requests      5260837                       # Number of requests hitting in the snoop filter with a single holder of the requested data.
system.membus.snoop_filter.hit_single_snoops            0                       # Number of snoops hitting in the snoop filter with a single holder of the requested data.
system.membus.snoop_filter.tot_requests      10554922                       # Total number of requests made to the snoop filter.
system.membus.snoop_filter.tot_snoops               0                       # Total number of snoops made to the snoop filter.
system.tol2bus.snoop_filter.hit_multi_requests           30                       # Number of requests hitting in the snoop filter with multiple (>1) holders of the requested data.
system.tol2bus.snoop_filter.hit_multi_snoops            0                       # Number of snoops hitting in the snoop filter with multiple (>1) holders of the requested data.
system.tol2bus.snoop_filter.hit_single_requests      5292636                       # Number of requests hitting in the snoop filter with a single holder of the requested data.
system.tol2bus.snoop_filter.hit_single_snoops          572                       # Number of snoops hitting in the snoop filter with a single holder of the requested data.
system.tol2bus.snoop_filter.tot_requests     10586780                       # Total number of requests made to the snoop filter.
system.tol2bus.snoop_filter.tot_snoops            572                       # Total number of snoops made to the snoop filter.
system.membus.trans_dist::ReadResp                759                       # Transaction distribution
system.membus.trans_dist::WritebackDirty      5260593                       # Transaction distribution
system.membus.trans_dist::CleanEvict              241                       # Transaction distribution
system.membus.trans_dist::ReadExReq           5293329                       # Transaction distribution
system.membus.trans_dist::ReadExResp          5293329                       # Transaction distribution
system.membus.trans_dist::ReadSharedReq           759                       # Transaction distribution
system.membus.pkt_count_system.l2.mem_side_port::system.mem_ctrls.port     15849010                       # Packet count per connected requestor and responder (bytes)
system.membus.pkt_count::total               15849010                       # Packet count per connected requestor and responder (bytes)
system.membus.pkt_size_system.l2.mem_side_port::system.mem_ctrls.port    675499584                       # Cumulative packet size per connected requestor and responder (bytes)
system.membus.pkt_size::total               675499584                       # Cumulative packet size per connected requestor and responder (bytes)
system.membus.snoops                                0                       # Total snoops (count)
system.membus.snoopTraffic                          0                       # Total snoop traffic (bytes)
system.membus.snoop_fanout::samples           5294088                       # Request fanout histogram
system.membus.snoop_fanout::mean                    0                       # Request fanout histogram
system.membus.snoop_fanout::stdev                   0                       # Request fanout histogram
system.membus.snoop_fanout::underflows              0      0.00%      0.00% # Request fanout histogram
system.membus.snoop_fanout::0                 5294088    100.00%    100.00% # Request fanout histogram
system.membus.snoop_fanout::1                       0      0.00%    100.00% # Request fanout histogram
system.membus.snoop_fanout::overflows               0      0.00%    100.00% # Request fanout histogram
system.membus.snoop_fanout::min_value               0                       # Request fanout histogram
system.membus.snoop_fanout::max_value               0                       # Request fanout histogram
system.membus.snoop_fanout::total             5294088                       # Request fanout histogram
system.membus.reqLayer0.occupancy         31620737000                       # Layer occupancy (ticks)
system.membus.reqLayer0.utilization               6.1                       # Layer utilization (%)
system.membus.respLayer1.occupancy        27844861750                       # Layer occupancy (ticks)
system.membus.respLayer1.utilization              5.4                       # Layer utilization (%)
system.membus.power_state.pwrStateResidencyTicks::UNDEFINED 516193296500                       # Cumulative time (in ticks) in various power states
system.tol2bus.trans_dist::ReadResp               805                       # Transaction distribution
system.tol2bus.trans_dist::WritebackDirty     10552953                       # Transaction distribution
system.tol2bus.trans_dist::WritebackClean           95                       # Transaction distribution
system.tol2bus.trans_dist::CleanEvict             994                       # Transaction distribution
system.tol2bus.trans_dist::ReadExReq          5293339                       # Transaction distribution
system.tol2bus.trans_dist::ReadExResp         5293338                       # Transaction distribution
system.tol2bus.trans_dist::ReadCleanReq           578                       # Transaction distribution
system.tol2bus.trans_dist::ReadSharedReq          227                       # Transaction distribution
system.tol2bus.pkt_count_system.cpu.icache.mem_side_port::system.l2.cpu_side_port         1251                       # Packet count per connected requestor and responder (bytes)
system.tol2bus.pkt_count_system.cpu.dcache.mem_side_port::system.l2.cpu_side_port     15879672                       # Packet count per connected requestor and responder (bytes)
system.tol2bus.pkt_count::total              15880923                       # Packet count per connected requestor and responder (bytes)
system.tol2bus.pkt_size_system.cpu.icache.mem_side_port::system.l2.cpu_side_port        43072                       # Cumulative packet size per connected requestor and responder (bytes)
system.tol2bus.pkt_size_system.cpu.dcache.mem_side_port::system.l2.cpu_side_port    677499200                       # Cumulative packet size per connected requestor and responder (bytes)
system.tol2bus.pkt_size::total              677542272                       # Cumulative packet size per connected requestor and responder (bytes)
system.tol2bus.snoops                         5261406                       # Total snoops (count)
system.tol2bus.snoopTraffic                 336677952                       # Total snoop traffic (bytes)
system.tol2bus.snoop_fanout::samples         10555550                       # Request fanout histogram
system.tol2bus.snoop_fanout::mean            0.000057                       # Request fanout histogram
system.tol2bus.snoop_fanout::stdev           0.007552                       # Request fanout histogram
system.tol2bus.snoop_fanout::underflows             0      0.00%      0.00% # Request fanout histogram
system.tol2bus.snoop_fanout::0               10554948     99.99%     99.99% # Request fanout histogram
system.tol2bus.snoop_fanout::1                    602      0.01%    100.00% # Request fanout histogram
system.tol2bus.snoop_fanout::2                      0      0.00%    100.00% # Request fanout histogram
system.tol2bus.snoop_fanout::overflows              0      0.00%    100.00% # Request fanout histogram
system.tol2bus.snoop_fanout::min_value              0                       # Request fanout histogram
system.tol2bus.snoop_fanout::max_value              1                       # Request fanout histogram
system.tol2bus.snoop_fanout::total           10555550                       # Request fanout histogram
system.tol2bus.reqLayer0.occupancy        10585845000                       # Layer occupancy (ticks)
system.tol2bus.reqLayer0.utilization              2.1                       # Layer utilization (%)
system.tol2bus.respLayer1.occupancy        7940350494                       # Layer occupancy (ticks)
system.tol2bus.respLayer1.utilization             1.5                       # Layer utilization (%)
system.tol2bus.respLayer0.occupancy            867000                       # Layer occupancy (ticks)
system.tol2bus.respLayer0.utilization             0.0                       # Layer utilization (%)
system.tol2bus.power_state.pwrStateResidencyTicks::UNDEFINED 516193296500                       # Cumulative time (in ticks) in various power states
system.voltage_domain.voltage                       1                       # Voltage in Volts
system.clk_domain.clock                          1000                       # Clock period in ticks
system.l2.demand_hits::.cpu.inst                    9                       # number of demand (read+write) hits
system.l2.demand_hits::.cpu.data                   40                       # number of demand (read+write) hits
system.l2.demand_hits::total                       49                       # number of demand (read+write) hits
system.l2.overall_hits::.cpu.inst                   9                       # number of overall hits
system.l2.overall_hits::.cpu.data                  40                       # number of overall hits
system.l2.overall_hits::total                      49                       # number of overall hits
system.l2.demand_misses::.cpu.inst                569                       # number of demand (read+write) misses
system.l2.demand_misses::.cpu.data            5293526                       # number of demand (read+write) misses
system.l2.demand_misses::total                5294095                       # number of demand (read+write) misses
system.l2.overall_misses::.cpu.inst               569                       # number of overall misses
system.l2.overall_misses::.cpu.data           5293526                       # number of overall misses
system.l2.overall_misses::total               5294095                       # number of overall misses
system.l2.demand_miss_latency::.cpu.inst     45025000                       # number of demand (read+write) miss cycles
system.l2.demand_miss_latency::.cpu.data 426470061500                       # number of demand (read+write) miss cycles
system.l2.demand_miss_latency::total     426515086500                       # number of demand (read+write) miss cycles
system.l2.overall_miss_latency::.cpu.inst     45025000                       # number of overall miss cycles
system.l2.overall_miss_latency::.cpu.data 426470061500                       # number of overall miss cycles
system.l2.overall_miss_latency::total    426515086500                       # number of overall miss cycles
system.l2.demand_accesses::.cpu.inst              578                       # number of demand (read+write) accesses
system.l2.demand_accesses::.cpu.data          5293566                       # number of demand (read+write) accesses
system.l2.demand_accesses::total              5294144                       # number of demand (read+write) accesses
system.l2.overall_accesses::.cpu.inst             578                       # number of overall (read+write) accesses
system.l2.overall_accesses::.cpu.data         5293566                       # number of overall (read+write) accesses
system.l2.overall_accesses::total             5294144                       # number of overall (read+write) accesses
system.l2.demand_miss_rate::.cpu.inst        0.984429                       # miss rate for demand accesses
system.l2.demand_miss_rate::.cpu.data        0.999992                       # miss rate for demand accesses
system.l2.demand_miss_rate::total            0.999991                       # miss rate for demand accesses
system.l2.overall_miss_rate::.cpu.inst       0.984429                       # miss rate for overall accesses
system.l2.overall_miss_rate::.cpu.data       0.999992                       # miss rate for overall accesses
system.l2.overall_miss_rate::total           0.999991                       # miss rate for overall accesses
system.l2.demand_avg_miss_latency::.cpu.inst 79130.052724                       # average overall miss latency
system.l2.demand_avg_miss_latency::.cpu.data 80564.459587                       # average overall miss latency
system.l2.demand_avg_miss_latency::total 80564.305420                       # average overall miss latency
system.l2.overall_avg_miss_latency::.cpu.inst 79130.052724                       # average overall miss latency
system.l2.overall_avg_miss_latency::.cpu.data 80564.459587                       # average overall miss latency
system.l2.overall_avg_miss_latency::total 80564.305420                       # average overall miss latency
system.l2.blocked_cycles::no_mshrs                  0                       # number of cycles access was blocked
system.l2.blocked_cycles::no_targets                0                       # number of cycles access was blocked
system.l2.blocked::no_mshrs                         0                       # number of cycles access was blocked
system.l2.blocked::no_targets                       0                       # number of cycles access was blocked
system.l2.avg_blocked_cycles::no_mshrs            nan                       # average number of cycles each access was blocked
system.l2.avg_blocked_cycles::no_targets          nan                       # average number of cycles each access was blocked
system.l2.writebacks::.writebacks             5260593                       # number of writebacks
system.l2.writebacks::total                   5260593                       # number of writebacks
system.l2.demand_mshr_hits::.cpu.data               6                       # number of demand (read+write) MSHR hits
system.l2.demand_mshr_hits::total                   6                       # number of demand (read+write) MSHR hits
system.l2.overall_mshr_hits::.cpu.data              6                       # number of overall MSHR hits
system.l2.overall_mshr_hits::total                  6                       # number of overall MSHR hits
system.l2.demand_mshr_misses::.cpu.inst           569                       # number of demand (read+write) MSHR misses
system.l2.demand_mshr_misses::.cpu.data       5293520                       # number of demand (read+write) MSHR misses
system.l2.demand_mshr_misses::total           5294089                       # number of demand (read+write) MSHR misses
system.l2.overall_mshr_misses::.cpu.inst          569                       # number of overall MSHR misses
system.l2.overall_mshr_misses::.cpu.data      5293520                       # number of overall MSHR misses
system.l2.overall_mshr_misses::total          5294089                       # number of overall MSHR misses
system.l2.demand_mshr_miss_latency::.cpu.inst     39335000                       # number of demand (read+write) MSHR miss cycles
system.l2.demand_mshr_miss_latency::.cpu.data 373534432000                       # number of demand (read+write) MSHR miss cycles
system.l2.demand_mshr_miss_latency::total 373573767000                       # number of demand (read+write) MSHR miss cycles
system.l2.overall_mshr_miss_latency::.cpu.inst     39335000                       # number of overall MSHR miss cycles
system.l2.overall_mshr_miss_latency::.cpu.data 373534432000                       # number of overall MSHR miss cycles
system.l2.overall_mshr_miss_latency::total 373573767000                       # number of overall MSHR miss cycles
system.l2.demand_mshr_miss_rate::.cpu.inst     0.984429                       # mshr miss rate for demand accesses
system.l2.demand_mshr_miss_rate::.cpu.data     0.999991                       # mshr miss rate for demand accesses
system.l2.demand_mshr_miss_rate::total       0.999990                       # mshr miss rate for demand accesses
system.l2.overall_mshr_miss_rate::.cpu.inst     0.984429                       # mshr miss rate for overall accesses
system.l2.overall_mshr_miss_rate::.cpu.data     0.999991                       # mshr miss rate for overall accesses
system.l2.overall_mshr_miss_rate::total      0.999990                       # mshr miss rate for overall accesses
system.l2.demand_avg_mshr_miss_latency::.cpu.inst 69130.052724                       # average overall mshr miss latency
system.l2.demand_avg_mshr_miss_latency::.cpu.data 70564.469767                       # average overall mshr miss latency
system.l2.demand_avg_mshr_miss_latency::total 70564.315598                       # average overall mshr miss latency
system.l2.overall_avg_mshr_miss_latency::.cpu.inst 69130.052724                       # average overall mshr miss latency
system.l2.overall_avg_mshr_miss_latency::.cpu.data 70564.469767                       # average overall mshr miss latency
system.l2.overall_avg_mshr_miss_latency::total 70564.315598                       # average overall mshr miss latency
system.l2.replacements                        5261406                       # number of replacements
system.l2.WritebackDirty_hits::.writebacks      5292360                       # number of WritebackDirty hits
system.l2.WritebackDirty_hits::total          5292360                       # number of WritebackDirty hits
system.l2.WritebackDirty_accesses::.writebacks      5292360                       # number of WritebackDirty accesses(hits+misses)
system.l2.WritebackDirty_accesses::total      5292360                       # number of WritebackDirty accesses(hits+misses)
system.l2.WritebackClean_hits::.writebacks           95                       # number of WritebackClean hits
system.l2.WritebackClean_hits::total               95                       # number of WritebackClean hits
system.l2.WritebackClean_accesses::.writebacks           95                       # number of WritebackClean accesses(hits+misses)
system.l2.WritebackClean_accesses::total           95                       # number of WritebackClean accesses(hits+misses)
system.l2.ReadExReq_hits::.cpu.data                 9                       # number of ReadExReq hits
system.l2.ReadExReq_hits::total                     9                       # number of ReadExReq hits
system.l2.ReadExReq_misses::.cpu.data         5293330                       # number of ReadExReq misses
system.l2.ReadExReq_misses::total             5293330                       # number of ReadExReq misses
system.l2.ReadExReq_miss_latency::.cpu.data 426451981000                       # number of ReadExReq miss cycles
system.l2.ReadExReq_miss_latency::total  426451981000                       # number of ReadExReq miss cycles
system.l2.ReadExReq_accesses::.cpu.data       5293339                       # number of ReadExReq accesses(hits+misses)
system.l2.ReadExReq_accesses::total           5293339                       # number of ReadExReq accesses(hits+misses)
system.l2.ReadExReq_miss_rate::.cpu.data     0.999998                       # miss rate for ReadExReq accesses
system.l2.ReadExReq_miss_rate::total         0.999998                       # miss rate for ReadExReq accesses
system.l2.ReadExReq_avg_miss_latency::.cpu.data 80564.026992                       # average ReadExReq miss latency
system.l2.ReadExReq_avg_miss_latency::total 80564.026992                       # average ReadExReq miss latency
system.l2.ReadExReq_mshr_misses::.cpu.data      5293330                       # number of ReadExReq MSHR misses
system.l2.ReadExReq_mshr_misses::total        5293330                       # number of ReadExReq MSHR misses
system.l2.ReadExReq_mshr_miss_latency::.cpu.data 373518691000                       # number of ReadExReq MSHR miss cycles
system.l2.ReadExReq_mshr_miss_latency::total 373518691000                       # number of ReadExReq MSHR miss cycles
system.l2.ReadExReq_mshr_miss_rate::.cpu.data     0.999998                       # mshr miss rate for ReadExReq accesses
system.l2.ReadExReq_mshr_miss_rate::total     0.999998                       # mshr miss rate for ReadExReq accesses
system.l2.ReadExReq_avg_mshr_miss_latency::.cpu.data 70564.028882                       # average ReadExReq mshr miss latency
system.l2.ReadExReq_avg_mshr_miss_latency::total 70564.028882                       # average ReadExReq mshr miss latency
system.l2.ReadCleanReq_hits::.cpu.inst              9                       # number of ReadCleanReq hits
system.l2.ReadCleanReq_hits::total                  9                       # number of ReadCleanReq hits
system.l2.ReadCleanReq_misses::.cpu.inst          569                       # number of ReadCleanReq misses
system.l2.ReadCleanReq_misses::total              569                       # number of ReadCleanReq misses
system.l2.ReadCleanReq_miss_latency::.cpu.inst     45025000                       # number of ReadCleanReq miss cycles
system.l2.ReadCleanReq_miss_latency::total     45025000                       # number of ReadCleanReq miss cycles
system.l2.ReadCleanReq_accesses::.cpu.inst          578                       # number of ReadCleanReq accesses(hits+misses)
system.l2.ReadCleanReq_accesses::total            578                       # number of ReadCleanReq accesses(hits+misses)
system.l2.ReadCleanReq_miss_rate::.cpu.inst     0.984429                       # miss rate for ReadCleanReq accesses
system.l2.ReadCleanReq_miss_rate::total      0.984429                       # miss rate for ReadCleanReq accesses
system.l2.ReadCleanReq_avg_miss_latency::.cpu.inst 79130.052724                       # average ReadCleanReq miss latency
system.l2.ReadCleanReq_avg_miss_latency::total 79130.052724                       # average ReadCleanReq miss latency
system.l2.ReadCleanReq_mshr_misses::.cpu.inst          569                       # number of ReadCleanReq MSHR misses
system.l2.ReadCleanReq_mshr_misses::total          569                       # number of ReadCleanReq MSHR misses
system.l2.ReadCleanReq_mshr_miss_latency::.cpu.inst     39335000                       # number of ReadCleanReq MSHR miss cycles
system.l2.ReadCleanReq_mshr_miss_latency::total     39335000                       # number of ReadCleanReq MSHR miss cycles
system.l2.ReadCleanReq_mshr_miss_rate::.cpu.inst     0.984429                       # mshr miss rate for ReadCleanReq accesses
system.l2.ReadCleanReq_mshr_miss_rate::total     0.984429                       # mshr miss rate for ReadCleanReq accesses
system.l2.ReadCleanReq_avg_mshr_miss_latency::.cpu.inst 69130.052724                       # average ReadCleanReq mshr miss latency
system.l2.ReadCleanReq_avg_mshr_miss_latency::total 69130.052724                       # average ReadCleanReq mshr miss latency
system.l2.ReadSharedReq_hits::.cpu.data            31                       # number of ReadSharedReq hits
system.l2.ReadSharedReq_hits::total                31                       # number of ReadSharedReq hits
system.l2.ReadSharedReq_misses::.cpu.data          196                       # number of ReadSharedReq misses
system.l2.ReadSharedReq_misses::total             196                       # number of ReadSharedReq misses
system.l2.ReadSharedReq_miss_latency::.cpu.data     18080500                       # number of ReadSharedReq miss cycles
system.l2.ReadSharedReq_miss_latency::total     18080500                       # number of ReadSharedReq miss cycles
system.l2.ReadSharedReq_accesses::.cpu.data          227                       # number of ReadSharedReq accesses(hits+misses)
system.l2.ReadSharedReq_accesses::total           227                       # number of ReadSharedReq accesses(hits+misses)
system.l2.ReadSharedReq_miss_rate::.cpu.data     0.863436                       # miss rate for ReadSharedReq accesses
system.l2.ReadSharedReq_miss_rate::total     0.863436                       # miss rate for ReadSharedReq accesses
system.l2.ReadSharedReq_avg_miss_latency::.cpu.data 92247.448980                       # average ReadSharedReq miss latency
system.l2.ReadSharedReq_avg_miss_latency::total 92247.448980                       # average ReadSharedReq miss latency
system.l2.ReadSharedReq_mshr_hits::.cpu.data            6                       # number of ReadSharedReq MSHR hits
system.l2.ReadSharedReq_mshr_hits::total            6                       # number of ReadSharedReq MSHR hits
system.l2.ReadSharedReq_mshr_misses::.cpu.data          190                       # number of ReadSharedReq MSHR misses
system.l2.ReadSharedReq_mshr_misses::total          190                       # number of ReadSharedReq MSHR misses
system.l2.ReadSharedReq_mshr_miss_latency::.cpu.data     15741000                       # number of ReadSharedReq MSHR miss cycles
system.l2.ReadSharedReq_mshr_miss_latency::total     15741000                       # number of ReadSharedReq MSHR miss cycles
system.l2.ReadSharedReq_mshr_miss_rate::.cpu.data     0.837004                       # mshr miss rate for ReadSharedReq accesses
system.l2.ReadSharedReq_mshr_miss_rate::total     0.837004                       # mshr miss rate for ReadSharedReq accesses
system.l2.ReadSharedReq_avg_mshr_miss_latency::.cpu.data 82847.368421                       # average ReadSharedReq mshr miss latency
system.l2.ReadSharedReq_avg_mshr_miss_latency::total 82847.368421                       # average ReadSharedReq mshr miss latency
system.l2.power_state.pwrStateResidencyTicks::UNDEFINED 516193296500                       # Cumulative time (in ticks) in various power states
system.l2.tags.tagsinuse                 32546.366966                       # Cycle average of tags in use
system.l2.tags.total_refs                    10586743                       # Total number of references to valid blocks.
system.l2.tags.sampled_refs                   5294174                       # Sample count of references to valid blocks.
system.l2.tags.avg_refs                      1.999697                       # Average number of references to valid blocks.
system.l2.tags.warmup_cycle                     77000                       # Cycle when the warmup percentage was hit.
system.l2.tags.occ_blocks::.writebacks       0.487964                       # Average occupied blocks per requestor
system.l2.tags.occ_blocks::.cpu.inst         4.472746                       # Average occupied blocks per requestor
system.l2.tags.occ_blocks::.cpu.data     32541.406256                       # Average occupied blocks per requestor
system.l2.tags.occ_percent::.writebacks      0.000015                       # Average percentage of cache occupancy
system.l2.tags.occ_percent::.cpu.inst        0.000136                       # Average percentage of cache occupancy
system.l2.tags.occ_percent::.cpu.data        0.993085                       # Average percentage of cache occupancy
system.l2.tags.occ_percent::total            0.993236                       # Average percentage of cache occupancy
system.l2.tags.occ_task_id_blocks::1024         32768                       # Occupied blocks per task id
system.l2.tags.age_task_id_blocks_1024::0          103                       # Occupied blocks per task id
system.l2.tags.age_task_id_blocks_1024::1          927                       # Occupied blocks per task id
system.l2.tags.age_task_id_blocks_1024::2         9269                       # Occupied blocks per task id
system.l2.tags.age_task_id_blocks_1024::3        22469                       # Occupied blocks per task id
system.l2.tags.occ_task_id_percent::1024            1                       # Percentage of cache occupancy per task id
system.l2.tags.tag_accesses                  89988174                       # Number of tag accesses
system.l2.tags.data_accesses                 89988174                       # Number of data accesses
system.l2.tags.power_state.pwrStateResidencyTicks::UNDEFINED 516193296500                       # Cumulative time (in ticks) in various power states
system.cpu_voltage_domain.voltage                   1                       # Voltage in Volts
system.mem_ctrls.avgPriority_.writebacks::samples   5260593.00                       # Average QoS priority value for accepted requests
system.mem_ctrls.avgPriority_.cpu.inst::samples       569.00                       # Average QoS priority value for accepted requests
system.mem_ctrls.avgPriority_.cpu.data::samples   5293519.00                       # Average QoS priority value for accepted requests
system.mem_ctrls.priorityMinLatency      0.000000018750                       # per QoS priority minimum request to response latency (s)
system.mem_ctrls.priorityMaxLatency      0.000734952750                       # per QoS priority maximum request to response latency (s)
system.mem_ctrls.numReadWriteTurnArounds       328744                       # Number of turnarounds from READ to WRITE
system.mem_ctrls.numWriteReadTurnArounds       328744                       # Number of turnarounds from WRITE to READ
system.mem_ctrls.numStayReadState            15642350                       # Number of times bus staying in READ state
system.mem_ctrls.numStayWriteState            4941119                       # Number of times bus staying in WRITE state
system.mem_ctrls.readReqs                     5294088                       # Number of read requests accepted
system.mem_ctrls.writeReqs                    5260593                       # Number of write requests accepted
system.mem_ctrls.readBursts                   5294088                       # Number of controller read bursts, including those serviced by the write queue
system.mem_ctrls.writeBursts                  5260593                       # Number of controller write bursts, including those merged in the write queue
system.mem_ctrls.servicedByWrQ                      0                       # Number of controller read bursts serviced by the write queue
system.mem_ctrls.mergedWrBursts                     0                       # Number of controller write bursts merged with an existing one
system.mem_ctrls.neitherReadNorWriteReqs            0                       # Number of requests that are neither read nor write
system.mem_ctrls.avgRdQLen                       1.00                       # Average read queue length when enqueuing
system.mem_ctrls.avgWrQLen                      25.85                       # Average write queue length when enqueuing
system.mem_ctrls.numRdRetry                         0                       # Number of times read queue was full causing retry
system.mem_ctrls.numWrRetry                         0                       # Number of times write queue was full causing retry
system.mem_ctrls.readPktSize::0                     0                       # Read request sizes (log2)
system.mem_ctrls.readPktSize::1                     0                       # Read request sizes (log2)
system.mem_ctrls.readPktSize::2                     0                       # Read request sizes (log2)
system.mem_ctrls.readPktSize::3                     0                       # Read request sizes (log2)
system.mem_ctrls.readPktSize::4                     0                       # Read request sizes (log2)
system.mem_ctrls.readPktSize::5                     0                       # Read request sizes (log2)
system.mem_ctrls.readPktSize::6               5294088                       # Read request sizes (log2)
system.mem_ctrls.writePktSize::0                    0                       # Write request sizes (log2)
system.mem_ctrls.writePktSize::1                    0                       # Write request sizes (log2)
system.mem_ctrls.writePktSize::2                    0                       # Write request sizes (log2)
system.mem_ctrls.writePktSize::3                    0                       # Write request sizes (log2)
system.mem_ctrls.writePktSize::4                    0                       # Write request sizes (log2)
system.mem_ctrls.writePktSize::5                    0                       # Write request sizes (log2)
system.mem_ctrls.writePktSize::6              5260593                       # Write request sizes (log2)
system.mem_ctrls.rdQLenPdf::0                 5293268                       # What read queue length does an incoming req see
system.mem_ctrls.rdQLenPdf::1                     791                       # What read queue length does an incoming req see
system.mem_ctrls.rdQLenPdf::2                      26                       # What read queue length does an incoming req see
system.mem_ctrls.rdQLenPdf::3                       3                       # What read queue length does an incoming req see
system.mem_ctrls.rdQLenPdf::4                       0                       # What read queue length does an incoming req see
system.mem_ctrls.rdQLenPdf::5                       0                       # What read queue length does an incoming req see
system.mem_ctrls.rdQLenPdf::6                       0                       # What read queue length does an incoming req see
system.mem_ctrls.rdQLenPdf::7                       0                       # What read queue length does an incoming req see
system.mem_ctrls.rdQLenPdf::8                       0                       # What read queue length does an incoming req see
system.mem_ctrls.rdQLenPdf::9                       0                       # What read queue length does an incoming req see
system.mem_ctrls.rdQLenPdf::10                      0                       # What read queue length does an incoming req see
system.mem_ctrls.rdQLenPdf::11                      0                       # What read queue length does an incoming req see
system.mem_ctrls.rdQLenPdf::12                      0                       # What read queue length does an incoming req see
system.mem_ctrls.rdQLenPdf::13                      0                       # What read queue length does an incoming req see
system.mem_ctrls.rdQLenPdf::14                      0                       # What read queue length does an incoming req see
system.mem_ctrls.rdQLenPdf::15                      0                       # What read queue length does an incoming req see
system.mem_ctrls.rdQLenPdf::16                      0                       # What read queue length does an incoming req see
system.mem_ctrls.rdQLenPdf::17                      0                       # What read queue length does an incoming req see
system.mem_ctrls.rdQLenPdf::18                      0                       # What read queue length does an incoming req see
system.mem_ctrls.rdQLenPdf::19                      0                       # What read queue length does an incoming req see
system.mem_ctrls.rdQLenPdf::20                      0                       # What read queue length does an incoming req see
system.mem_ctrls.rdQLenPdf::21                      0                       # What read queue length does an incoming req see
system.mem_ctrls.rdQLenPdf::22                      0                       # What read queue length does an incoming req see
system.mem_ctrls.rdQLenPdf::23                      0                       # What read queue length does an incoming req see
system.mem_ctrls.rdQLenPdf::24                      0                       # What read queue length does an incoming req see
system.mem_ctrls.rdQLenPdf::25                      0                       # What read queue length does an incoming req see
system.mem_ctrls.rdQLenPdf::26                      0                       # What read queue length does an incoming req see
system.mem_ctrls.rdQLenPdf::27                      0                       # What read queue length does an incoming req see
system.mem_ctrls.rdQLenPdf::28                      0                       # What read queue length does an incoming req see
system.mem_ctrls.rdQLenPdf::29                      0                       # What read queue length does an incoming req see
system.mem_ctrls.rdQLenPdf::30                      0                       # What read queue length does an incoming req see
system.mem_ctrls.rdQLenPdf::31                      0                       # What read queue length does an incoming req see
system.mem_ctrls.wrQLenPdf::0                       1                       # What write queue length does an incoming req see
system.mem_ctrls.wrQLenPdf::1                       1                       # What write queue length does an incoming req see
system.mem_ctrls.wrQLenPdf::2                       1                       # What write queue length does an incoming req see
system.mem_ctrls.wrQLenPdf::3                       1                       # What write queue length does an incoming req see
system.mem_ctrls.wrQLenPdf::4                       1                       # What write queue length does an incoming req see
system.mem_ctrls.wrQLenPdf::5                       1                       # What write queue length does an incoming req see
system.mem_ctrls.wrQLenPdf::6                       1                       # What write queue length does an incoming req see
system.mem_ctrls.wrQLenPdf::7                       1                       # What write queue length does an incoming req see
system.mem_ctrls.wrQLenPdf::8                       1                       # What write queue length does an incoming req see
system.mem_ctrls.wrQLenPdf::9                       1                       # What write queue length does an incoming req see
system.mem_ctrls.wrQLenPdf::10                      1                       # What write queue length does an incoming req see
system.mem_ctrls.wrQLenPdf::11                      1                       # What write queue length does an incoming req see
system.mem_ctrls.wrQLenPdf::12                      1                       # What write queue length does an incoming req see
system.mem_ctrls.wrQLenPdf::13                      1                       # What write queue length does an incoming req see
system.mem_ctrls.wrQLenPdf::14                      1                       # What write queue length does an incoming req see
system.mem_ctrls.wrQLenPdf::15                    221                       # What write queue length does an incoming req see
system.mem_ctrls.wrQLenPdf::16                    226                       # What write queue length does an incoming req see
system.mem_ctrls.wrQLenPdf::17                 326589                       # What write queue length does an incoming req see
system.mem_ctrls.wrQLenPdf::18                 328748                       # What write queue length does an incoming req see
system.mem_ctrls.wrQLenPdf::19                 328746                       # What write queue length does an incoming req see
system.mem_ctrls.wrQLenPdf::20                 328746                       # What write queue length does an incoming req see
system.mem_ctrls.wrQLenPdf::21                 328746                       # What write queue length does an incoming req see
system.mem_ctrls.wrQLenPdf::22                 328746                       # What write queue length does an incoming req see
system.mem_ctrls.wrQLenPdf::23                 328755                       # What write queue length does an incoming req see
system.mem_ctrls.wrQLenPdf::24                 328748                       # What write queue length does an incoming req see
system.mem_ctrls.wrQLenPdf::25                 331090                       # What write queue length does an incoming req see
system.mem_ctrls.wrQLenPdf::26                 328744                       # What write queue length does an incoming req see
system.mem_ctrls.wrQLenPdf::27                 328744                       # What write queue length does an incoming req see
system.mem_ctrls.wrQLenPdf::28                 328744                       # What write queue length does an incoming req see
system.mem_ctrls.wrQLenPdf::29                 328748                       # What write queue length does an incoming req see
system.mem_ctrls.wrQLenPdf::30                 328744                       # What write queue length does an incoming req see
system.mem_ctrls.wrQLenPdf::31                 328749                       # What write queue length does an incoming req see
system.mem_ctrls.wrQLenPdf::32                 328744                       # What write queue length does an incoming req see
system.mem_ctrls.wrQLenPdf::33                      0                       # What write queue length does an incoming req see
system.mem_ctrls.wrQLenPdf::34                      0                       # What write queue length does an incoming req see
system.mem_ctrls.wrQLenPdf::35                      0                       # What write queue length does an incoming req see
system.mem_ctrls.wrQLenPdf::36                      0                       # What write queue length does an incoming req see
system.mem_ctrls.wrQLenPdf::37                      0                       # What write queue length does an incoming req see
system.mem_ctrls.wrQLenPdf::38                      0                       # What write queue length does an incoming req see
system.mem_ctrls.wrQLenPdf::39                      0                       # What write queue length does an incoming req see
system.mem_ctrls.wrQLenPdf::40                      0                       # What write queue length does an incoming req see
system.mem_ctrls.wrQLenPdf::41                      0                       # What write queue length does an incoming req see
system.mem_ctrls.wrQLenPdf::42                      0                       # What write queue length does an incoming req see
system.mem_ctrls.wrQLenPdf::43                      0                       # What write queue length does an incoming req see
system.mem_ctrls.wrQLenPdf::44                      0                       # What write queue length does an incoming req see
system.mem_ctrls.wrQLenPdf::45                      0                       # What write queue length does an incoming req see
system.mem_ctrls.wrQLenPdf::46                      0                       # What write queue length does an incoming req see
system.mem_ctrls.wrQLenPdf::47                      0                       # What write queue length does an incoming req see
system.mem_ctrls.wrQLenPdf::48                      0                       # What write queue length does an incoming req see
system.mem_ctrls.wrQLenPdf::49                      0                       # What write queue length does an incoming req see
system.mem_ctrls.wrQLenPdf::50                      0                       # What write queue length does an incoming req see
system.mem_ctrls.wrQLenPdf::51                      0                       # What write queue length does an incoming req see
system.mem_ctrls.wrQLenPdf::52                      0                       # What write queue length does an incoming req see
system.mem_ctrls.wrQLenPdf::53                      0                       # What write queue length does an incoming req see
system.mem_ctrls.wrQLenPdf::54                      0                       # What write queue length does an incoming req see
system.mem_ctrls.wrQLenPdf::55                      0                       # What write queue length does an incoming req see
system.mem_ctrls.wrQLenPdf::56                      0                       # What write queue length does an incoming req see
system.mem_ctrls.wrQLenPdf::57                      0                       # What write queue length does an incoming req see
system.mem_ctrls.wrQLenPdf::58                      0                       # What write queue length does an incoming req see
system.mem_ctrls.wrQLenPdf::59                      0                       # What write queue length does an incoming req see
system.mem_ctrls.wrQLenPdf::60                      0                       # What write queue length does an incoming req see
system.mem_ctrls.wrQLenPdf::61                      0                       # What write queue length does an incoming req see
system.mem_ctrls.wrQLenPdf::62                      0                       # What write queue length does an incoming req see
system.mem_ctrls.wrQLenPdf::63                      0                       # What write queue length does an incoming req see
system.mem_ctrls.rdPerTurnAround::samples       328744                       # Reads before turning the bus around for writes
system.mem_ctrls.rdPerTurnAround::mean      16.103968                       # Reads before turning the bus around for writes
system.mem_ctrls.rdPerTurnAround::gmean     16.005017                       # Reads before turning the bus around for writes
system.mem_ctrls.rdPerTurnAround::stdev     51.875317                       # Reads before turning the bus around for writes
system.mem_ctrls.rdPerTurnAround::0-1023       328742    100.00%    100.00% # Reads before turning the bus around for writes
system.mem_ctrls.rdPerTurnAround::1024-2047            1      0.00%    100.00% # Reads before turning the bus around for writes
system.mem_ctrls.rdPerTurnAround::29696-30719            1      0.00%    100.00% # Reads before turning the bus around for writes
system.mem_ctrls.rdPerTurnAround::total        328744                       # Reads before turning the bus around for writes
system.mem_ctrls.wrPerTurnAround::samples       328744                       # Writes before turning the bus around for reads
system.mem_ctrls.wrPerTurnAround::mean      16.002029                       # Writes before turning the bus around for reads
system.mem_ctrls.wrPerTurnAround::gmean     16.001860                       # Writes before turning the bus around for reads
system.mem_ctrls.wrPerTurnAround::stdev      0.077914                       # Writes before turning the bus around for reads
system.mem_ctrls.wrPerTurnAround::16           328520     99.93%     99.93% # Writes before turning the bus around for reads
system.mem_ctrls.wrPerTurnAround::17                1      0.00%     99.93% # Writes before turning the bus around for reads
system.mem_ctrls.wrPerTurnAround::18                5      0.00%     99.93% # Writes before turning the bus around for reads
system.mem_ctrls.wrPerTurnAround::19              216      0.07%    100.00% # Writes before turning the bus around for reads
system.mem_ctrls.wrPerTurnAround::20                2      0.00%    100.00% # Writes before turning the bus around for reads
system.mem_ctrls.wrPerTurnAround::total        328744                       # Writes before turning the bus around for reads
system.mem_ctrls.bytesReadWrQ                       0                       # Total number of bytes read from write queue
system.mem_ctrls.bytesReadSys               338821632                       # Total read bytes from the system interface side
system.mem_ctrls.bytesWrittenSys            336677952                       # Total written bytes from the system interface side
system.mem_ctrls.avgRdBWSys                    656.39                       # Average system read bandwidth in MiByte/s
system.mem_ctrls.avgWrBWSys                    652.23                       # Average system write bandwidth in MiByte/s
system.mem_ctrls.totGap                  516193265000                       # Total gap between requests
system.mem_ctrls.avgGap                      48906.57                       # Average gap between requests
system.mem_ctrls.requestorReadBytes::.cpu.inst        36416                       # Per-requestor bytes read from memory
system.mem_ctrls.requestorReadBytes::.cpu.data    338785216                       # Per-requestor bytes read from memory
system.mem_ctrls.requestorWriteBytes::.writebacks    336676544                       # Per-requestor bytes write to memory
system.mem_ctrls.requestorReadRate::.cpu.inst 70547.216027242612                       # Per-requestor bytes read from memory rate (Bytes/sec)
system.mem_ctrls.requestorReadRate::.cpu.data 656314636.972431063652                       # Per-requestor bytes read from memory rate (Bytes/sec)
system.mem_ctrls.requestorWriteRate::.writebacks 652229593.609222650528                       # Per-requestor bytes write to memory rate (Bytes/sec)
system.mem_ctrls.requestorReadAccesses::.cpu.inst          569                       # Per-requestor read serviced memory accesses
system.mem_ctrls.requestorReadAccesses::.cpu.data      5293519                       # Per-requestor read serviced memory accesses
system.mem_ctrls.requestorWriteAccesses::.writebacks      5260593                       # Per-requestor write serviced memory accesses
system.mem_ctrls.requestorReadTotalLat::.cpu.inst     16031000                       # Per-requestor read total memory access latency
system.mem_ctrls.requestorReadTotalLat::.cpu.data 157749248750                       # Per-requestor read total memory access latency
system.mem_ctrls.requestorWriteTotalLat::.writebacks 12627671315750                       # Per-requestor write total memory access latency
system.mem_ctrls.requestorReadAvgLat::.cpu.inst     28173.99                       # Per-requestor read average memory access latency
system.mem_ctrls.requestorReadAvgLat::.cpu.data     29800.45                       # Per-requestor read average memory access latency
system.mem_ctrls.requestorWriteAvgLat::.writebacks   2400427.35                       # Per-requestor write average memory access latency
system.mem_ctrls.dram.bytes_read::.cpu.inst        36416                       # Number of bytes read from this memory
system.mem_ctrls.dram.bytes_read::.cpu.data    338785216                       # Number of bytes read from this memory
system.mem_ctrls.dram.bytes_read::total     338821632                       # Number of bytes read from this memory
system.mem_ctrls.dram.bytes_inst_read::.cpu.inst        36416                       # Number of instructions bytes read from this memory
system.mem_ctrls.dram.bytes_inst_read::total        36416                       # Number of instructions bytes read from this memory
system.mem_ctrls.dram.bytes_written::.writebacks    336677952                       # Number of bytes written to this memory
system.mem_ctrls.dram.bytes_written::total    336677952                       # Number of bytes written to this memory
system.mem_ctrls.dram.num_reads::.cpu.inst          569                       # Number of read requests responded to by this memory
system.mem_ctrls.dram.num_reads::.cpu.data      5293519                       # Number of read requests responded to by this memory
system.mem_ctrls.dram.num_reads::total        5294088                       # Number of read requests responded to by this memory
system.mem_ctrls.dram.num_writes::.writebacks      5260593                       # Number of write requests responded to by this memory
system.mem_ctrls.dram.num_writes::total       5260593                       # Number of write requests responded to by this memory
system.mem_ctrls.dram.bw_read::.cpu.inst        70547                       # Total read bandwidth from this memory (bytes/s)
system.mem_ctrls.dram.bw_read::.cpu.data    656314637                       # Total read bandwidth from this memory (bytes/s)
system.mem_ctrls.dram.bw_read::total        656385184                       # Total read bandwidth from this memory (bytes/s)
system.mem_ctrls.dram.bw_inst_read::.cpu.inst        70547                       # Instruction read bandwidth from this memory (bytes/s)
system.mem_ctrls.dram.bw_inst_read::total        70547                       # Instruction read bandwidth from this memory (bytes/s)
system.mem_ctrls.dram.bw_write::.writebacks    652232321                       # Write bandwidth from this memory (bytes/s)
system.mem_ctrls.dram.bw_write::total       652232321                       # Write bandwidth from this memory (bytes/s)
system.mem_ctrls.dram.bw_total::.writebacks    652232321                       # Total bandwidth to/from this memory (bytes/s)
system.mem_ctrls.dram.bw_total::.cpu.inst        70547                       # Total bandwidth to/from this memory (bytes/s)
system.mem_ctrls.dram.bw_total::.cpu.data    656314637                       # Total bandwidth to/from this memory (bytes/s)
system.mem_ctrls.dram.bw_total::total      1308617505                       # Total bandwidth to/from this memory (bytes/s)
system.mem_ctrls.dram.readBursts              5294088                       # Number of DRAM read bursts
system.mem_ctrls.dram.writeBursts             5260571                       # Number of DRAM write bursts
system.mem_ctrls.dram.perBankRdBursts::0       330853                       # Per bank write bursts
system.mem_ctrls.dram.perBankRdBursts::1       330878                       # Per bank write bursts
system.mem_ctrls.dram.perBankRdBursts::2       331021                       # Per bank write bursts
system.mem_ctrls.dram.perBankRdBursts::3       330919                       # Per bank write bursts
system.mem_ctrls.dram.perBankRdBursts::4       331021                       # Per bank write bursts
system.mem_ctrls.dram.perBankRdBursts::5       330984                       # Per bank write bursts
system.mem_ctrls.dram.perBankRdBursts::6       330997                       # Per bank write bursts
system.mem_ctrls.dram.perBankRdBursts::7       330774                       # Per bank write bursts
system.mem_ctrls.dram.perBankRdBursts::8       330795                       # Per bank write bursts
system.mem_ctrls.dram.perBankRdBursts::9       330787                       # Per bank write bursts
system.mem_ctrls.dram.perBankRdBursts::10       330848                       # Per bank write bursts
system.mem_ctrls.dram.perBankRdBursts::11       330896                       # Per bank write bursts
system.mem_ctrls.dram.perBankRdBursts::12       330900                       # Per bank write bursts
system.mem_ctrls.dram.perBankRdBursts::13       330824                       # Per bank write bursts
system.mem_ctrls.dram.perBankRdBursts::14       330854                       # Per bank write bursts
system.mem_ctrls.dram.perBankRdBursts::15       330737                       # Per bank write bursts
system.mem_ctrls.dram.perBankWrBursts::0       328719                       # Per bank write bursts
system.mem_ctrls.dram.perBankWrBursts::1       328764                       # Per bank write bursts
system.mem_ctrls.dram.perBankWrBursts::2       328920                       # Per bank write bursts
system.mem_ctrls.dram.perBankWrBursts::3       328832                       # Per bank write bursts
system.mem_ctrls.dram.perBankWrBursts::4       328896                       # Per bank write bursts
system.mem_ctrls.dram.perBankWrBursts::5       328896                       # Per bank write bursts
system.mem_ctrls.dram.perBankWrBursts::6       328877                       # Per bank write bursts
system.mem_ctrls.dram.perBankWrBursts::7       328706                       # Per bank write bursts
system.mem_ctrls.dram.perBankWrBursts::8       328704                       # Per bank write bursts
system.mem_ctrls.dram.perBankWrBursts::9       328704                       # Per bank write bursts
system.mem_ctrls.dram.perBankWrBursts::10       328734                       # Per bank write bursts
system.mem_ctrls.dram.perBankWrBursts::11       328822                       # Per bank write bursts
system.mem_ctrls.dram.perBankWrBursts::12       328837                       # Per bank write bursts
system.mem_ctrls.dram.perBankWrBursts::13       328758                       # Per bank write bursts
system.mem_ctrls.dram.perBankWrBursts::14       328782                       # Per bank write bursts
system.mem_ctrls.dram.perBankWrBursts::15       328620                       # Per bank write bursts
system.mem_ctrls.dram.totQLat             58501129750                       # Total ticks spent queuing
system.mem_ctrls.dram.totBusLat           26470440000                       # Total ticks spent in databus transfers
system.mem_ctrls.dram.totMemAccLat       157765279750                       # Total ticks spent from burst creation until serviced by the DRAM
system.mem_ctrls.dram.avgQLat                11050.28                       # Average queueing delay per DRAM burst
system.mem_ctrls.dram.avgBusLat               5000.00                       # Average bus latency per DRAM burst
system.mem_ctrls.dram.avgMemAccLat           29800.28                       # Average memory access latency per DRAM burst
system.mem_ctrls.dram.readRowHits             4862976                       # Number of row buffer hits during reads
system.mem_ctrls.dram.writeRowHits            4886175                       # Number of row buffer hits during writes
system.mem_ctrls.dram.readRowHitRate            91.86                       # Row buffer hit rate for reads
system.mem_ctrls.dram.writeRowHitRate           92.88                       # Row buffer hit rate for writes
system.mem_ctrls.dram.bytesPerActivate::samples       805507                       # Bytes accessed per row activation
system.mem_ctrls.dram.bytesPerActivate::mean   838.599610                       # Bytes accessed per row activation
system.mem_ctrls.dram.bytesPerActivate::gmean   728.459310                       # Bytes accessed per row activation
system.mem_ctrls.dram.bytesPerActivate::stdev   301.619939                       # Bytes accessed per row activation
system.mem_ctrls.dram.bytesPerActivate::0-127        25436      3.16%      3.16% # Bytes accessed per row activation
system.mem_ctrls.dram.bytesPerActivate::128-255        36320      4.51%      7.67% # Bytes accessed per row activation
system.mem_ctrls.dram.bytesPerActivate::256-383        29809      3.70%     11.37% # Bytes accessed per row activation
system.mem_ctrls.dram.bytesPerActivate::384-511        42966      5.33%     16.70% # Bytes accessed per row activation
system.mem_ctrls.dram.bytesPerActivate::512-639        48198      5.98%     22.68% # Bytes accessed per row activation
system.mem_ctrls.dram.bytesPerActivate::640-767        33470      4.16%     26.84% # Bytes accessed per row activation
system.mem_ctrls.dram.bytesPerActivate::768-895        24392      3.03%     29.87% # Bytes accessed per row activation
system.mem_ctrls.dram.bytesPerActivate::896-1023        40229      4.99%     34.86% # Bytes accessed per row activation
system.mem_ctrls.dram.bytesPerActivate::1024-1151       524687     65.14%    100.00% # Bytes accessed per row activation
system.mem_ctrls.dram.bytesPerActivate::total       805507                       # Bytes accessed per row activation
system.mem_ctrls.dram.bytesRead             338821632                       # Total number of bytes read from DRAM
system.mem_ctrls.dram.bytesWritten          336676544                       # Total number of bytes written to DRAM
system.mem_ctrls.dram.avgRdBW              656.385184                       # Average DRAM read bandwidth in MiBytes/s
system.mem_ctrls.dram.avgWrBW              652.229594                       # Average DRAM write bandwidth in MiBytes/s
system.mem_ctrls.dram.peakBW                 12800.00                       # Theoretical peak bandwidth in MiByte/s
system.mem_ctrls.dram.busUtil                   10.22                       # Data bus utilization in percentage
system.mem_ctrls.dram.busUtilRead                5.13                       # Data bus utilization in percentage for reads
system.mem_ctrls.dram.busUtilWrite               5.10                       # Data bus utilization in percentage for writes
system.mem_ctrls.dram.pageHitRate               92.37                       # Row buffer hit rate, read and write combined
system.mem_ctrls.dram.rank1.actEnergy      2874878160                       # Energy for activate commands per rank (pJ)
system.mem_ctrls.dram.rank1.preEnergy      1528030185                       # Energy for precharge commands per rank (pJ)
system.mem_ctrls.dram.rank1.readEnergy    18897016740                       # Energy for read commands per rank (pJ)
system.mem_ctrls.dram.rank1.writeEnergy   13728396420                       # Energy for write commands per rank (pJ)
system.mem_ctrls.dram.rank1.refreshEnergy 40747558800.000008                       # Energy for refresh commands per rank (pJ)
system.mem_ctrls.dram.rank1.actBackEnergy 123518692200                       # Energy for active background per rank (pJ)
system.mem_ctrls.dram.rank1.preBackEnergy  94202485440                       # Energy for precharge background per rank (pJ)
system.mem_ctrls.dram.rank1.actPowerDownEnergy            0                       # Energy for active power-down per rank (pJ)
system.mem_ctrls.dram.rank1.prePowerDownEnergy            0                       # Energy for precharge power-down per rank (pJ)
system.mem_ctrls.dram.rank1.selfRefreshEnergy            0                       # Energy for self refresh per rank (pJ)
system.mem_ctrls.dram.rank1.totalEnergy  295497057945                       # Total energy per rank (pJ)
system.mem_ctrls.dram.rank1.averagePower   572.454272                       # Core power per rank (mW)
system.mem_ctrls.dram.rank1.totalIdleTime            0                       # Total Idle time Per DRAM Rank
system.mem_ctrls.dram.rank1.pwrStateTime::IDLE 241078541000                       # Time in different power states
system.mem_ctrls.dram.rank1.pwrStateTime::REF  17236700000                       # Time in different power states
system.mem_ctrls.dram.rank1.pwrStateTime::SREF            0                       # Time in different power states
system.mem_ctrls.dram.rank1.pwrStateTime::PRE_PDN            0                       # Time in different power states
system.mem_ctrls.dram.rank1.pwrStateTime::ACT 257878055500                       # Time in different power states
system.mem_ctrls.dram.rank1.pwrStateTime::ACT_PDN            0                       # Time in different power states
system.mem_ctrls.dram.rank0.actEnergy      2876448960                       # Energy for activate commands per rank (pJ)
system.mem_ctrls.dram.rank0.preEnergy      1528868880                       # Energy for precharge commands per rank (pJ)
system.mem_ctrls.dram.rank0.readEnergy    18902771580                       # Energy for read commands per rank (pJ)
system.mem_ctrls.dram.rank0.writeEnergy   13731784200                       # Energy for write commands per rank (pJ)
system.mem_ctrls.dram.rank0.refreshEnergy 40747558800.000008                       # Energy for refresh commands per rank (pJ)
system.mem_ctrls.dram.rank0.actBackEnergy 123719050620                       # Energy for active background per rank (pJ)
system.mem_ctrls.dram.rank0.preBackEnergy  94033762560                       # Energy for precharge background per rank (pJ)
system.mem_ctrls.dram.rank0.actPowerDownEnergy            0                       # Energy for active power-down per rank (pJ)
system.mem_ctrls.dram.rank0.prePowerDownEnergy            0                       # Energy for precharge power-down per rank (pJ)
system.mem_ctrls.dram.rank0.selfRefreshEnergy            0                       # Energy for self refresh per rank (pJ)
system.mem_ctrls.dram.rank0.totalEnergy  295540245600                       # Total energy per rank (pJ)
system.mem_ctrls.dram.rank0.averagePower   572.537938                       # Core power per rank (mW)
system.mem_ctrls.dram.rank0.totalIdleTime            0                       # Total Idle time Per DRAM Rank
system.mem_ctrls.dram.rank0.pwrStateTime::IDLE 240642374250                       # Time in different power states
system.mem_ctrls.dram.rank0.pwrStateTime::REF  17236700000                       # Time in different power states
system.mem_ctrls.dram.rank0.pwrStateTime::SREF            0                       # Time in different power states
system.mem_ctrls.dram.rank0.pwrStateTime::PRE_PDN            0                       # Time in different power states
system.mem_ctrls.dram.rank0.pwrStateTime::ACT 258314222250                       # Time in different power states
system.mem_ctrls.dram.rank0.pwrStateTime::ACT_PDN            0                       # Time in different power states
system.mem_ctrls.dram.power_state.pwrStateResidencyTicks::UNDEFINED 516193296500                       # Cumulative time (in ticks) in various power states
system.mem_ctrls.power_state.pwrStateResidencyTicks::UNDEFINED 516193296500                       # Cumulative time (in ticks) in various power states
system.cpu_clk_domain.clock                       500                       # Clock period in ticks
system.cpu.icache.demand_hits::.cpu.inst     32340944                       # number of demand (read+write) hits
system.cpu.icache.demand_hits::total         32340944                       # number of demand (read+write) hits
system.cpu.icache.overall_hits::.cpu.inst     32340944                       # number of overall hits
system.cpu.icache.overall_hits::total        32340944                       # number of overall hits
system.cpu.icache.demand_misses::.cpu.inst          578                       # number of demand (read+write) misses
system.cpu.icache.demand_misses::total            578                       # number of demand (read+write) misses
system.cpu.icache.overall_misses::.cpu.inst          578                       # number of overall misses
system.cpu.icache.overall_misses::total           578                       # number of overall misses
system.cpu.icache.demand_miss_latency::.cpu.inst     46569500                       # number of demand (read+write) miss cycles
system.cpu.icache.demand_miss_latency::total     46569500                       # number of demand (read+write) miss cycles
system.cpu.icache.overall_miss_latency::.cpu.inst     46569500                       # number of overall miss cycles
system.cpu.icache.overall_miss_latency::total     46569500                       # number of overall miss cycles
system.cpu.icache.demand_accesses::.cpu.inst     32341522                       # number of demand (read+write) accesses
system.cpu.icache.demand_accesses::total     32341522                       # number of demand (read+write) accesses
system.cpu.icache.overall_accesses::.cpu.inst     32341522                       # number of overall (read+write) accesses
system.cpu.icache.overall_accesses::total     32341522                       # number of overall (read+write) accesses
system.cpu.icache.demand_miss_rate::.cpu.inst     0.000018                       # miss rate for demand accesses
system.cpu.icache.demand_miss_rate::total     0.000018                       # miss rate for demand accesses
system.cpu.icache.overall_miss_rate::.cpu.inst     0.000018                       # miss rate for overall accesses
system.cpu.icache.overall_miss_rate::total     0.000018                       # miss rate for overall accesses
system.cpu.icache.demand_avg_miss_latency::.cpu.inst 80570.069204                       # average overall miss latency
system.cpu.icache.demand_avg_miss_latency::total 80570.069204                       # average overall miss latency
system.cpu.icache.overall_avg_miss_latency::.cpu.inst 80570.069204                       # average overall miss latency
system.cpu.icache.overall_avg_miss_latency::total 80570.069204                       # average overall miss latency
system.cpu.icache.blocked_cycles::no_mshrs            0                       # number of cycles access was blocked
system.cpu.icache.blocked_cycles::no_targets            0                       # number of cycles access was blocked
system.cpu.icache.blocked::no_mshrs                 0                       # number of cycles access was blocked
system.cpu.icache.blocked::no_targets               0                       # number of cycles access was blocked
system.cpu.icache.avg_blocked_cycles::no_mshrs          nan                       # average number of cycles each access was blocked
system.cpu.icache.avg_blocked_cycles::no_targets          nan                       # average number of cycles each access was blocked
system.cpu.icache.writebacks::.writebacks           95                       # number of writebacks
system.cpu.icache.writebacks::total                95                       # number of writebacks
system.cpu.icache.demand_mshr_misses::.cpu.inst          578                       # number of demand (read+write) MSHR misses
system.cpu.icache.demand_mshr_misses::total          578                       # number of demand (read+write) MSHR misses
system.cpu.icache.overall_mshr_misses::.cpu.inst          578                       # number of overall MSHR misses
system.cpu.icache.overall_mshr_misses::total          578                       # number of overall MSHR misses
system.cpu.icache.demand_mshr_miss_latency::.cpu.inst     45991500                       # number of demand (read+write) MSHR miss cycles
system.cpu.icache.demand_mshr_miss_latency::total     45991500                       # number of demand (read+write) MSHR miss cycles
system.cpu.icache.overall_mshr_miss_latency::.cpu.inst     45991500                       # number of overall MSHR miss cycles
system.cpu.icache.overall_mshr_miss_latency::total     45991500                       # number of overall MSHR miss cycles
system.cpu.icache.demand_mshr_miss_rate::.cpu.inst     0.000018                       # mshr miss rate for demand accesses
system.cpu.icache.demand_mshr_miss_rate::total     0.000018                       # mshr miss rate for demand accesses
system.cpu.icache.overall_mshr_miss_rate::.cpu.inst     0.000018                       # mshr miss rate for overall accesses
system.cpu.icache.overall_mshr_miss_rate::total     0.000018                       # mshr miss rate for overall accesses
system.cpu.icache.demand_avg_mshr_miss_latency::.cpu.inst 79570.069204                       # average overall mshr miss latency
system.cpu.icache.demand_avg_mshr_miss_latency::total 79570.069204                       # average overall mshr miss latency
system.cpu.icache.overall_avg_mshr_miss_latency::.cpu.inst 79570.069204                       # average overall mshr miss latency
system.cpu.icache.overall_avg_mshr_miss_latency::total 79570.069204                       # average overall mshr miss latency
system.cpu.icache.replacements                     95                       # number of replacements
system.cpu.icache.ReadReq_hits::.cpu.inst     32340944                       # number of ReadReq hits
system.cpu.icache.ReadReq_hits::total        32340944                       # number of ReadReq hits
system.cpu.icache.ReadReq_misses::.cpu.inst          578                       # number of ReadReq misses
system.cpu.icache.ReadReq_misses::total           578                       # number of ReadReq misses
system.cpu.icache.ReadReq_miss_latency::.cpu.inst     46569500                       # number of ReadReq miss cycles
system.cpu.icache.ReadReq_miss_latency::total     46569500                       # number of ReadReq miss cycles
system.cpu.icache.ReadReq_accesses::.cpu.inst     32341522                       # number of ReadReq accesses(hits+misses)
[...]
system.cpu.dcache.ReadReq_mshr_miss_rate::.cpu.data     0.000156                       # mshr miss rate for ReadReq accesses
system.cpu.dcache.ReadReq_mshr_miss_rate::total     0.000156                       # mshr miss rate for ReadReq accesses
system.cpu.dcache.ReadReq_avg_mshr_miss_latency::.cpu.data 76931.818182                       # average ReadReq mshr miss latency
system.cpu.dcache.ReadReq_avg_mshr_miss_latency::total 76931.818182                       # average ReadReq mshr miss latency
system.cpu.dcache.WriteReq_hits::.cpu.data     74241829                       # number of WriteReq hits
system.cpu.dcache.WriteReq_hits::total       74241829                       # number of WriteReq hits
system.cpu.dcache.WriteReq_misses::.cpu.data     10584206                       # number of WriteReq misses
system.cpu.dcache.WriteReq_misses::total     10584206                       # number of WriteReq misses
system.cpu.dcache.WriteReq_miss_latency::.cpu.data 881800178499                       # number of WriteReq miss cycles
system.cpu.dcache.WriteReq_miss_latency::total 881800178499                       # number of WriteReq miss cycles
system.cpu.dcache.WriteReq_accesses::.cpu.data     84826035                       # number of WriteReq accesses(hits+misses)
system.cpu.dcache.WriteReq_accesses::total     84826035                       # number of WriteReq accesses(hits+misses)
system.cpu.dcache.WriteReq_miss_rate::.cpu.data     0.124775                       # miss rate for WriteReq accesses
system.cpu.dcache.WriteReq_miss_rate::total     0.124775                       # miss rate for WriteReq accesses
system.cpu.dcache.WriteReq_avg_miss_latency::.cpu.data 83312.832205                       # average WriteReq miss latency
system.cpu.dcache.WriteReq_avg_miss_latency::total 83312.832205                       # average WriteReq miss latency
system.cpu.dcache.WriteReq_mshr_hits::.cpu.data      5290867                       # number of WriteReq MSHR hits
system.cpu.dcache.WriteReq_mshr_hits::total      5290867                       # number of WriteReq MSHR hits
system.cpu.dcache.WriteReq_mshr_misses::.cpu.data      5293339                       # number of WriteReq MSHR misses
system.cpu.dcache.WriteReq_mshr_misses::total      5293339                       # number of WriteReq MSHR misses
system.cpu.dcache.WriteReq_mshr_miss_latency::.cpu.data 434392084000                       # number of WriteReq MSHR miss cycles
system.cpu.dcache.WriteReq_mshr_miss_latency::total 434392084000                       # number of WriteReq MSHR miss cycles
system.cpu.dcache.WriteReq_mshr_miss_rate::.cpu.data     0.062402                       # mshr miss rate for WriteReq accesses
system.cpu.dcache.WriteReq_mshr_miss_rate::total     0.062402                       # mshr miss rate for WriteReq accesses
system.cpu.dcache.WriteReq_avg_mshr_miss_latency::.cpu.data 82063.907866                       # average WriteReq mshr miss latency
system.cpu.dcache.WriteReq_avg_mshr_miss_latency::total 82063.907866                       # average WriteReq mshr miss latency
system.cpu.dcache.SoftPFReq_hits::.cpu.data           18                       # number of SoftPFReq hits
system.cpu.dcache.SoftPFReq_hits::total            18                       # number of SoftPFReq hits
system.cpu.dcache.SoftPFReq_misses::.cpu.data           33                       # number of SoftPFReq misses
system.cpu.dcache.SoftPFReq_misses::total           33                       # number of SoftPFReq misses
system.cpu.dcache.SoftPFReq_accesses::.cpu.data           51                       # number of SoftPFReq accesses(hits+misses)
system.cpu.dcache.SoftPFReq_accesses::total           51                       # number of SoftPFReq accesses(hits+misses)
system.cpu.dcache.SoftPFReq_miss_rate::.cpu.data     0.647059                       # miss rate for SoftPFReq accesses
system.cpu.dcache.SoftPFReq_miss_rate::total     0.647059                       # miss rate for SoftPFReq accesses
system.cpu.dcache.SoftPFReq_mshr_misses::.cpu.data           28                       # number of SoftPFReq MSHR misses
system.cpu.dcache.SoftPFReq_mshr_misses::total           28                       # number of SoftPFReq MSHR misses
system.cpu.dcache.SoftPFReq_mshr_miss_latency::.cpu.data      3463000                       # number of SoftPFReq MSHR miss cycles
system.cpu.dcache.SoftPFReq_mshr_miss_latency::total      3463000                       # number of SoftPFReq MSHR miss cycles
system.cpu.dcache.SoftPFReq_mshr_miss_rate::.cpu.data     0.549020                       # mshr miss rate for SoftPFReq accesses
system.cpu.dcache.SoftPFReq_mshr_miss_rate::total     0.549020                       # mshr miss rate for SoftPFReq accesses
system.cpu.dcache.SoftPFReq_avg_mshr_miss_latency::.cpu.data 123678.571429                       # average SoftPFReq mshr miss latency
system.cpu.dcache.SoftPFReq_avg_mshr_miss_latency::total 123678.571429                       # average SoftPFReq mshr miss latency
system.cpu.dcache.LoadLockedReq_hits::.cpu.data           50                       # number of LoadLockedReq hits
system.cpu.dcache.LoadLockedReq_hits::total           50                       # number of LoadLockedReq hits
system.cpu.dcache.LoadLockedReq_misses::.cpu.data            1                       # number of LoadLockedReq misses
system.cpu.dcache.LoadLockedReq_misses::total            1                       # number of LoadLockedReq misses
system.cpu.dcache.LoadLockedReq_miss_latency::.cpu.data        74500                       # number of LoadLockedReq miss cycles
system.cpu.dcache.LoadLockedReq_miss_latency::total        74500                       # number of LoadLockedReq miss cycles
system.cpu.dcache.LoadLockedReq_accesses::.cpu.data           51                       # number of LoadLockedReq accesses(hits+misses)
system.cpu.dcache.LoadLockedReq_accesses::total           51                       # number of LoadLockedReq accesses(hits+misses)
system.cpu.dcache.LoadLockedReq_miss_rate::.cpu.data     0.019608                       # miss rate for LoadLockedReq accesses
system.cpu.dcache.LoadLockedReq_miss_rate::total     0.019608                       # miss rate for LoadLockedReq accesses
system.cpu.dcache.LoadLockedReq_avg_miss_latency::.cpu.data        74500                       # average LoadLockedReq miss latency
system.cpu.dcache.LoadLockedReq_avg_miss_latency::total        74500                       # average LoadLockedReq miss latency
system.cpu.dcache.LoadLockedReq_mshr_misses::.cpu.data            1                       # number of LoadLockedReq MSHR misses
system.cpu.dcache.LoadLockedReq_mshr_misses::total            1                       # number of LoadLockedReq MSHR misses
system.cpu.dcache.LoadLockedReq_mshr_miss_latency::.cpu.data        73500                       # number of LoadLockedReq MSHR miss cycles
system.cpu.dcache.LoadLockedReq_mshr_miss_latency::total        73500                       # number of LoadLockedReq MSHR miss cycles
system.cpu.dcache.LoadLockedReq_mshr_miss_rate::.cpu.data     0.019608                       # mshr miss rate for LoadLockedReq accesses
system.cpu.dcache.LoadLockedReq_mshr_miss_rate::total     0.019608                       # mshr miss rate for LoadLockedReq accesses
system.cpu.dcache.LoadLockedReq_avg_mshr_miss_latency::.cpu.data        73500                       # average LoadLockedReq mshr miss latency
system.cpu.dcache.LoadLockedReq_avg_mshr_miss_latency::total        73500                       # average LoadLockedReq mshr miss latency
system.cpu.dcache.StoreCondReq_hits::.cpu.data           51                       # number of StoreCondReq hits
system.cpu.dcache.StoreCondReq_hits::total           51                       # number of StoreCondReq hits
system.cpu.dcache.StoreCondReq_accesses::.cpu.data           51                       # number of StoreCondReq accesses(hits+misses)
system.cpu.dcache.StoreCondReq_accesses::total           51                       # number of StoreCondReq accesses(hits+misses)
system.cpu.dcache.power_state.pwrStateResidencyTicks::UNDEFINED 516193296500                       # Cumulative time (in ticks) in various power states
system.cpu.dcache.tags.tagsinuse          1023.520845                       # Cycle average of tags in use
system.cpu.dcache.tags.total_refs            80804308                       # Total number of references to valid blocks.
system.cpu.dcache.tags.sampled_refs           5293565                       # Sample count of references to valid blocks.
system.cpu.dcache.tags.avg_refs             15.264629                       # Average number of references to valid blocks.
system.cpu.dcache.tags.warmup_cycle            176500                       # Cycle when the warmup percentage was hit.
system.cpu.dcache.tags.occ_blocks::.cpu.data  1023.520845                       # Average occupied blocks per requestor
system.cpu.dcache.tags.occ_percent::.cpu.data     0.999532                       # Average percentage of cache occupancy
system.cpu.dcache.tags.occ_percent::total     0.999532                       # Average percentage of cache occupancy
system.cpu.dcache.tags.occ_task_id_blocks::1024         1024                       # Occupied blocks per task id
system.cpu.dcache.tags.age_task_id_blocks_1024::0          103                       # Occupied blocks per task id
system.cpu.dcache.tags.age_task_id_blocks_1024::1          921                       # Occupied blocks per task id
system.cpu.dcache.tags.occ_task_id_percent::1024            1                       # Percentage of cache occupancy per task id
system.cpu.dcache.tags.tag_accesses         177483949                       # Number of tag accesses
system.cpu.dcache.tags.data_accesses        177483949                       # Number of data accesses
system.cpu.dcache.tags.power_state.pwrStateResidencyTicks::UNDEFINED 516193296500                       # Cumulative time (in ticks) in various power states
system.cpu.power_state.pwrStateResidencyTicks::ON 516193296500                       # Cumulative time (in ticks) in various power states
system.cpu.branchPred.lookups                10718646                       # Number of BP lookups
system.cpu.branchPred.condPredicted          10710452                       # Number of conditional branches predicted
system.cpu.branchPred.condIncorrect              1368                       # Number of conditional branches incorrect
system.cpu.branchPred.BTBLookups             10711243                       # Number of BTB lookups
system.cpu.branchPred.BTBHits                10709895                       # Number of BTB hits
system.cpu.branchPred.BTBHitPct             99.987415                       # BTB Hit Percentage
system.cpu.branchPred.RASUsed                    2657                       # Number of times the RAS was used to get a target.
system.cpu.branchPred.RASIncorrect                  9                       # Number of incorrect RAS predictions.
system.cpu.branchPred.indirectLookups             141                       # Number of indirect predictor lookups.
system.cpu.branchPred.indirectHits                  7                       # Number of indirect target hits.
system.cpu.branchPred.indirectMisses              134                       # Number of indirect misses.
system.cpu.branchPred.indirectMispredicted           92                       # Number of mispredicted indirect branches.
system.cpu.fetch2.intInstructions            45539341                       # Number of integer instructions successfully decoded
system.cpu.fetch2.fpInstructions                    0                       # Number of floating point instructions successfully decoded
system.cpu.fetch2.vecInstructions                   0                       # Number of SIMD instructions successfully decoded
system.cpu.fetch2.loadInstructions            1309365                       # Number of memory load instructions successfully decoded
system.cpu.fetch2.storeInstructions            171651                       # Number of memory store instructions successfully decoded
system.cpu.fetch2.amoInstructions                   0                       # Number of memory atomic instructions successfully decoded
system.cpu.itb.instHits                             0                       # ITB inst hits
system.cpu.itb.instMisses                           0                       # ITB inst misses
system.cpu.itb.readHits                             0                       # DTB read hits
system.cpu.itb.readMisses                           0                       # DTB read misses
system.cpu.itb.writeHits                            0                       # DTB write hits
system.cpu.itb.writeMisses                          0                       # DTB write misses
system.cpu.itb.inserts                              0                       # Number of times an entry is inserted into the TLB
system.cpu.itb.flushTlb                             0                       # Number of times complete TLB was flushed
system.cpu.itb.flushTlbMva                          0                       # Number of times TLB was flushed by MVA
system.cpu.itb.flushTlbMvaAsid                      0                       # Number of times TLB was flushed by MVA & ASID
system.cpu.itb.flushTlbAsid                         0                       # Number of times TLB was flushed by ASID
system.cpu.itb.flushedEntries                       0                       # Number of entries that have been flushed from TLB
system.cpu.itb.alignFaults                          0                       # Number of TLB faults due to alignment restrictions
system.cpu.itb.prefetchFaults                       0                       # Number of TLB faults due to prefetch
system.cpu.itb.domainFaults                         0                       # Number of TLB faults due to domain restrictions
system.cpu.itb.permsFaults                          0                       # Number of TLB faults due to permissions restrictions
system.cpu.itb.readAccesses                         0                       # DTB read accesses
system.cpu.itb.writeAccesses                        0                       # DTB write accesses
system.cpu.itb.instAccesses                         0                       # ITB inst accesses
system.cpu.itb.hits                                 0                       # Total TLB (inst and data) hits
system.cpu.itb.misses                               0                       # Total TLB (inst and data) misses
system.cpu.itb.accesses                             0                       # Total TLB (inst and data) accesses
system.cpu.itb.walker.walks                         0                       # Table walker walks requested
system.cpu.itb.walker.requestOrigin_Requested::Data            0                       # Table walker requests started/completed, data/inst
system.cpu.itb.walker.requestOrigin_Requested::Inst            0                       # Table walker requests started/completed, data/inst
system.cpu.itb.walker.requestOrigin_Requested::total            0                       # Table walker requests started/completed, data/inst
system.cpu.itb.walker.requestOrigin_Completed::Data            0                       # Table walker requests started/completed, data/inst
system.cpu.itb.walker.requestOrigin_Completed::Inst            0                       # Table walker requests started/completed, data/inst
system.cpu.itb.walker.requestOrigin_Completed::total            0                       # Table walker requests started/completed, data/inst
system.cpu.itb.walker.requestOrigin::total            0                       # Table walker requests started/completed, data/inst
system.cpu.itb.walker.power_state.pwrStateResidencyTicks::UNDEFINED 516193296500                       # Cumulative time (in ticks) in various power states
system.cpu.itb.stage2_mmu.stage2_tlb.instHits            0                       # ITB inst hits
system.cpu.itb.stage2_mmu.stage2_tlb.instMisses            0                       # ITB inst misses
system.cpu.itb.stage2_mmu.stage2_tlb.readHits            0                       # DTB read hits
system.cpu.itb.stage2_mmu.stage2_tlb.readMisses            0                       # DTB read misses
system.cpu.itb.stage2_mmu.stage2_tlb.writeHits            0                       # DTB write hits
system.cpu.itb.stage2_mmu.stage2_tlb.writeMisses            0                       # DTB write misses
system.cpu.itb.stage2_mmu.stage2_tlb.inserts            0                       # Number of times an entry is inserted into the TLB
system.cpu.itb.stage2_mmu.stage2_tlb.flushTlb            0                       # Number of times complete TLB was flushed
system.cpu.itb.stage2_mmu.stage2_tlb.flushTlbMva            0                       # Number of times TLB was flushed by MVA
system.cpu.itb.stage2_mmu.stage2_tlb.flushTlbMvaAsid            0                       # Number of times TLB was flushed by MVA & ASID
system.cpu.itb.stage2_mmu.stage2_tlb.flushTlbAsid            0                       # Number of times TLB was flushed by ASID
system.cpu.itb.stage2_mmu.stage2_tlb.flushedEntries            0                       # Number of entries that have been flushed from TLB
system.cpu.itb.stage2_mmu.stage2_tlb.alignFaults            0                       # Number of TLB faults due to alignment restrictions
system.cpu.itb.stage2_mmu.stage2_tlb.prefetchFaults            0                       # Number of TLB faults due to prefetch
system.cpu.itb.stage2_mmu.stage2_tlb.domainFaults            0                       # Number of TLB faults due to domain restrictions
system.cpu.itb.stage2_mmu.stage2_tlb.permsFaults            0                       # Number of TLB faults due to permissions restrictions
system.cpu.itb.stage2_mmu.stage2_tlb.readAccesses            0                       # DTB read accesses
system.cpu.itb.stage2_mmu.stage2_tlb.writeAccesses            0                       # DTB write accesses
system.cpu.itb.stage2_mmu.stage2_tlb.instAccesses            0                       # ITB inst accesses
system.cpu.itb.stage2_mmu.stage2_tlb.hits            0                       # Total TLB (inst and data) hits
system.cpu.itb.stage2_mmu.stage2_tlb.misses            0                       # Total TLB (inst and data) misses
system.cpu.itb.stage2_mmu.stage2_tlb.accesses            0                       # Total TLB (inst and data) accesses
system.cpu.itb.stage2_mmu.stage2_tlb.walker.walks            0                       # Table walker walks requested
system.cpu.itb.stage2_mmu.stage2_tlb.walker.requestOrigin_Requested::Data            0                       # Table walker requests started/completed, data/inst
system.cpu.itb.stage2_mmu.stage2_tlb.walker.requestOrigin_Requested::Inst            0                       # Table walker requests started/completed, data/inst
system.cpu.itb.stage2_mmu.stage2_tlb.walker.requestOrigin_Requested::total            0                       # Table walker requests started/completed, data/inst
system.cpu.itb.stage2_mmu.stage2_tlb.walker.requestOrigin_Completed::Data            0                       # Table walker requests started/completed, data/inst
system.cpu.itb.stage2_mmu.stage2_tlb.walker.requestOrigin_Completed::Inst            0                       # Table walker requests started/completed, data/inst
system.cpu.itb.stage2_mmu.stage2_tlb.walker.requestOrigin_Completed::total            0                       # Table walker requests started/completed, data/inst
system.cpu.itb.stage2_mmu.stage2_tlb.walker.requestOrigin::total            0                       # Table walker requests started/completed, data/inst
system.cpu.itb.stage2_mmu.stage2_tlb.walker.power_state.pwrStateResidencyTicks::UNDEFINED 516193296500                       # Cumulative time (in ticks) in various power states

---------- End Simulation Statistics   ----------
