
---------- Begin Simulation Statistics ----------
final_tick                                59055670000                       # Number of ticks from beginning of simulation (restored from checkpoints and never reset)
host_inst_rate                                 135966                       # Simulator instruction rate (inst/s)
host_mem_usage                                 719240                       # Number of bytes of host memory used
host_op_rate                                   147586                       # Simulator op (including micro ops) rate (op/s)
host_seconds                                   735.48                       # Real time elapsed on the host
host_tick_rate                               80295878                       # Simulator tick rate (ticks/s)
sim_freq                                 1000000000000                       # Frequency of simulated ticks
sim_insts                                   100000001                       # Number of instructions simulated
sim_ops                                     108545994                       # Number of ops (including micro ops) simulated
sim_seconds                                  0.059056                       # Number of seconds simulated
sim_ticks                                 59055670000                       # Number of ticks simulated
system.cpu.committedInsts                   100000001                       # Number of instructions committed
system.cpu.committedOps                     108545994                       # Number of ops (including micro ops) committed
system.cpu.cpi                               1.181113                       # CPI: cycles per instruction
system.cpu.discardedOps                        354599                       # Number of ops (including micro ops) which were discarded before commit
system.cpu.idleCycles                         5843121                       # Total number of cycles that the object has spent stopped
system.cpu.ipc                               0.846659                       # IPC: instructions per cycle
system.cpu.numCycles                        118111340                       # number of cpu cycles simulated
system.cpu.numFetchSuspends                         0                       # Number of times Execute suspended instruction fetching
system.cpu.numWorkItemsCompleted                    0                       # number of work items this cpu completed
system.cpu.numWorkItemsStarted                      0                       # number of work items this cpu started
system.cpu.op_class_0::No_OpClass                   0      0.00%      0.00% # Class of committed instruction
system.cpu.op_class_0::IntAlu                71947168     66.28%     66.28% # Class of committed instruction
system.cpu.op_class_0::IntMult                 542828      0.50%     66.78% # Class of committed instruction
system.cpu.op_class_0::IntDiv                       0      0.00%     66.78% # Class of committed instruction
system.cpu.op_class_0::FloatAdd                     0      0.00%     66.78% # Class of committed instruction
system.cpu.op_class_0::FloatCmp                     0      0.00%     66.78% # Class of committed instruction
system.cpu.op_class_0::FloatCvt                     0      0.00%     66.78% # Class of committed instruction
system.cpu.op_class_0::FloatMult                    0      0.00%     66.78% # Class of committed instruction
system.cpu.op_class_0::FloatMultAcc                 0      0.00%     66.78% # Class of committed instruction
system.cpu.op_class_0::FloatDiv                     0      0.00%     66.78% # Class of committed instruction
system.cpu.op_class_0::FloatMisc                    0      0.00%     66.78% # Class of committed instruction
system.cpu.op_class_0::FloatSqrt                    0      0.00%     66.78% # Class of committed instruction
system.cpu.op_class_0::SimdAdd                      0      0.00%     66.78% # Class of committed instruction
system.cpu.op_class_0::SimdAddAcc                   0      0.00%     66.78% # Class of committed instruction
system.cpu.op_class_0::SimdAlu                      0      0.00%     66.78% # Class of committed instruction
system.cpu.op_class_0::SimdCmp                      0      0.00%     66.78% # Class of committed instruction
system.cpu.op_class_0::SimdCvt                      0      0.00%     66.78% # Class of committed instruction
system.cpu.op_class_0::SimdMisc                     0      0.00%     66.78% # Class of committed instruction
system.cpu.op_class_0::SimdMult                     0      0.00%     66.78% # Class of committed instruction
system.cpu.op_class_0::SimdMultAcc                  0      0.00%     66.78% # Class of committed instruction
system.cpu.op_class_0::SimdShift                    0      0.00%     66.78% # Class of committed instruction
system.cpu.op_class_0::SimdShiftAcc                 0      0.00%     66.78% # Class of committed instruction
system.cpu.op_class_0::SimdDiv                      0      0.00%     66.78% # Class of committed instruction
system.cpu.op_class_0::SimdSqrt                     0      0.00%     66.78% # Class of committed instruction
system.cpu.op_class_0::SimdFloatAdd                 0      0.00%     66.78% # Class of committed instruction
system.cpu.op_class_0::SimdFloatAlu                 0      0.00%     66.78% # Class of committed instruction
system.cpu.op_class_0::SimdFloatCmp                 0      0.00%     66.78% # Class of committed instruction
system.cpu.op_class_0::SimdFloatCvt                 0      0.00%     66.78% # Class of committed instruction
system.cpu.op_class_0::SimdFloatDiv                 0      0.00%     66.78% # Class of committed instruction
system.cpu.op_class_0::SimdFloatMisc                0      0.00%     66.78% # Class of committed instruction
system.cpu.op_class_0::SimdFloatMult                0      0.00%     66.78% # Class of committed instruction
system.cpu.op_class_0::SimdFloatMultAcc             0      0.00%     66.78% # Class of committed instruction
system.cpu.op_class_0::SimdFloatSqrt                0      0.00%     66.78% # Class of committed instruction
system.cpu.op_class_0::SimdReduceAdd                0      0.00%     66.78% # Class of committed instruction
system.cpu.op_class_0::SimdReduceAlu                0      0.00%     66.78% # Class of committed instruction
system.cpu.op_class_0::SimdReduceCmp                0      0.00%     66.78% # Class of committed instruction
system.cpu.op_class_0::SimdFloatReduceAdd            0      0.00%     66.78% # Class of committed instruction
system.cpu.op_class_0::SimdFloatReduceCmp            0      0.00%     66.78% # Class of committed instruction
system.cpu.op_class_0::SimdAes                      0      0.00%     66.78% # Class of committed instruction
system.cpu.op_class_0::SimdAesMix                   0      0.00%     66.78% # Class of committed instruction
system.cpu.op_class_0::SimdSha1Hash                 0      0.00%     66.78% # Class of committed instruction
system.cpu.op_class_0::SimdSha1Hash2                0      0.00%     66.78% # Class of committed instruction
system.cpu.op_class_0::SimdSha256Hash               0      0.00%     66.78% # Class of committed instruction
system.cpu.op_class_0::SimdSha256Hash2              0      0.00%     66.78% # Class of committed instruction
system.cpu.op_class_0::SimdShaSigma2                0      0.00%     66.78% # Class of committed instruction
system.cpu.op_class_0::SimdShaSigma3                0      0.00%     66.78% # Class of committed instruction
system.cpu.op_class_0::SimdPredAlu                  0      0.00%     66.78% # Class of committed instruction
system.cpu.op_class_0::MemRead               21574996     19.88%     86.66% # Class of committed instruction
system.cpu.op_class_0::MemWrite              14481002     13.34%    100.00% # Class of committed instruction
system.cpu.op_class_0::FloatMemRead                 0      0.00%    100.00% # Class of committed instruction
system.cpu.op_class_0::FloatMemWrite                0      0.00%    100.00% # Class of committed instruction
system.cpu.op_class_0::IprAccess                    0      0.00%    100.00% # Class of committed instruction
system.cpu.op_class_0::InstPrefetch                 0      0.00%    100.00% # Class of committed instruction
system.cpu.op_class_0::total                108545994                       # Class of committed instruction
system.cpu.tickCycles                       112268219                       # Number of cycles that the object actually ticked
system.cpu.workload.numSyscalls                    84                       # Number of system calls
system.membus.snoop_filter.hit_multi_requests            0                       # Number of requests hitting in the snoop filter with multiple (>1) holders of the requested data.
system.membus.snoop_filter.hit_multi_snoops            0                       # Number of snoops hitting in the snoop filter with multiple (>1) holders of the requested data.
system.membus.snoop_filter.hit_single_requests        24557                       # Number of requests hitting in the snoop filter with a single holder of the requested data.
system.membus.snoop_filter.hit_single_snoops            0                       # Number of snoops hitting in the snoop filter with a single holder of the requested data.
system.membus.snoop_filter.tot_requests         65903                       # Total number of requests made to the snoop filter.
system.membus.snoop_filter.tot_snoops               0                       # Total number of snoops made to the snoop filter.
system.tol2bus.snoop_filter.hit_multi_requests           53                       # Number of requests hitting in the snoop filter with multiple (>1) holders of the requested data.
system.tol2bus.snoop_filter.hit_multi_snoops            5                       # Number of snoops hitting in the snoop filter with multiple (>1) holders of the requested data.
system.tol2bus.snoop_filter.hit_single_requests       182619                       # Number of requests hitting in the snoop filter with a single holder of the requested data.
system.tol2bus.snoop_filter.hit_single_snoops          429                       # Number of snoops hitting in the snoop filter with a single holder of the requested data.
system.tol2bus.snoop_filter.tot_requests       366653                       # Total number of requests made to the snoop filter.
system.tol2bus.snoop_filter.tot_snoops            434                       # Total number of snoops made to the snoop filter.
system.membus.trans_dist::ReadResp               3591                       # Transaction distribution
system.membus.trans_dist::WritebackDirty        24401                       # Transaction distribution
system.membus.trans_dist::CleanEvict              151                       # Transaction distribution
system.membus.trans_dist::ReadExReq             37760                       # Transaction distribution
system.membus.trans_dist::ReadExResp            37760                       # Transaction distribution
system.membus.trans_dist::ReadSharedReq          3591                       # Transaction distribution
system.membus.pkt_count_system.l2.mem_side_port::system.mem_ctrls.port       107254                       # Packet count per connected requestor and responder (bytes)
system.membus.pkt_count::total                 107254                       # Packet count per connected requestor and responder (bytes)
system.membus.pkt_size_system.l2.mem_side_port::system.mem_ctrls.port      4208128                       # Cumulative packet size per connected requestor and responder (bytes)
system.membus.pkt_size::total                 4208128                       # Cumulative packet size per connected requestor and responder (bytes)
system.membus.snoops                                0                       # Total snoops (count)
system.membus.snoopTraffic                          0                       # Total snoop traffic (bytes)
system.membus.snoop_fanout::samples             41351                       # Request fanout histogram
system.membus.snoop_fanout::mean                    0                       # Request fanout histogram
system.membus.snoop_fanout::stdev                   0                       # Request fanout histogram
system.membus.snoop_fanout::underflows              0      0.00%      0.00% # Request fanout histogram
system.membus.snoop_fanout::0                   41351    100.00%    100.00% # Request fanout histogram
system.membus.snoop_fanout::1                       0      0.00%    100.00% # Request fanout histogram
system.membus.snoop_fanout::overflows               0      0.00%    100.00% # Request fanout histogram
system.membus.snoop_fanout::min_value               0                       # Request fanout histogram
system.membus.snoop_fanout::max_value               0                       # Request fanout histogram
system.membus.snoop_fanout::total               41351                       # Request fanout histogram
system.membus.reqLayer0.occupancy           172358000                       # Layer occupancy (ticks)
system.membus.reqLayer0.utilization               0.3                       # Layer utilization (%)
system.membus.respLayer1.occupancy          220514250                       # Layer occupancy (ticks)
system.membus.respLayer1.utilization              0.4                       # Layer utilization (%)
system.membus.power_state.pwrStateResidencyTicks::UNDEFINED  59055670000                       # Cumulative time (in ticks) in various power states
system.tol2bus.trans_dist::ReadResp            146268                       # Transaction distribution
system.tol2bus.trans_dist::WritebackDirty        72566                       # Transaction distribution
system.tol2bus.trans_dist::WritebackClean       131363                       # Transaction distribution
system.tol2bus.trans_dist::CleanEvict            3667                       # Transaction distribution
system.tol2bus.trans_dist::ReadExReq            37772                       # Transaction distribution
system.tol2bus.trans_dist::ReadExResp           37772                       # Transaction distribution
system.tol2bus.trans_dist::ReadCleanReq        131766                       # Transaction distribution
system.tol2bus.trans_dist::ReadSharedReq        14502                       # Transaction distribution
system.tol2bus.pkt_count_system.cpu.icache.mem_side_port::system.l2.cpu_side_port       394895                       # Packet count per connected requestor and responder (bytes)
system.tol2bus.pkt_count_system.cpu.dcache.mem_side_port::system.l2.cpu_side_port       155798                       # Packet count per connected requestor and responder (bytes)
system.tol2bus.pkt_count::total                550693                       # Packet count per connected requestor and responder (bytes)
system.tol2bus.pkt_size_system.cpu.icache.mem_side_port::system.l2.cpu_side_port     16840256                       # Cumulative packet size per connected requestor and responder (bytes)
system.tol2bus.pkt_size_system.cpu.dcache.mem_side_port::system.l2.cpu_side_port      6428096                       # Cumulative packet size per connected requestor and responder (bytes)
system.tol2bus.pkt_size::total               23268352                       # Cumulative packet size per connected requestor and responder (bytes)
system.tol2bus.snoops                           24983                       # Total snoops (count)
system.tol2bus.snoopTraffic                   1561664                       # Total snoop traffic (bytes)
system.tol2bus.snoop_fanout::samples           209023                       # Request fanout histogram
system.tol2bus.snoop_fanout::mean            0.002383                       # Request fanout histogram
system.tol2bus.snoop_fanout::stdev           0.049241                       # Request fanout histogram
system.tol2bus.snoop_fanout::underflows             0      0.00%      0.00% # Request fanout histogram
system.tol2bus.snoop_fanout::0                 208530     99.76%     99.76% # Request fanout histogram
system.tol2bus.snoop_fanout::1                    488      0.23%    100.00% # Request fanout histogram
system.tol2bus.snoop_fanout::2                      5      0.00%    100.00% # Request fanout histogram
system.tol2bus.snoop_fanout::overflows              0      0.00%    100.00% # Request fanout histogram
system.tol2bus.snoop_fanout::min_value              0                       # Request fanout histogram
system.tol2bus.snoop_fanout::max_value              2                       # Request fanout histogram
system.tol2bus.snoop_fanout::total             209023                       # Request fanout histogram
system.tol2bus.reqLayer0.occupancy          362854500                       # Layer occupancy (ticks)
system.tol2bus.reqLayer0.utilization              0.6                       # Layer utilization (%)
system.tol2bus.respLayer1.occupancy          78413994                       # Layer occupancy (ticks)
system.tol2bus.respLayer1.utilization             0.1                       # Layer utilization (%)
system.tol2bus.respLayer0.occupancy         197649000                       # Layer occupancy (ticks)
system.tol2bus.respLayer0.utilization             0.3                       # Layer utilization (%)
system.tol2bus.power_state.pwrStateResidencyTicks::UNDEFINED  59055670000                       # Cumulative time (in ticks) in various power states
system.voltage_domain.voltage                       1                       # Voltage in Volts
system.clk_domain.clock                          1000                       # Clock period in ticks
system.l2.demand_hits::.cpu.inst               131252                       # number of demand (read+write) hits
system.l2.demand_hits::.cpu.data                11431                       # number of demand (read+write) hits
system.l2.demand_hits::total                   142683                       # number of demand (read+write) hits
system.l2.overall_hits::.cpu.inst              131252                       # number of overall hits
system.l2.overall_hits::.cpu.data               11431                       # number of overall hits
system.l2.overall_hits::total                  142683                       # number of overall hits
system.l2.demand_misses::.cpu.inst                514                       # number of demand (read+write) misses
system.l2.demand_misses::.cpu.data              40843                       # number of demand (read+write) misses
system.l2.demand_misses::total                  41357                       # number of demand (read+write) misses
system.l2.overall_misses::.cpu.inst               514                       # number of overall misses
system.l2.overall_misses::.cpu.data             40843                       # number of overall misses
system.l2.overall_misses::total                 41357                       # number of overall misses
system.l2.demand_miss_latency::.cpu.inst     38641500                       # number of demand (read+write) miss cycles
system.l2.demand_miss_latency::.cpu.data   3180138500                       # number of demand (read+write) miss cycles
system.l2.demand_miss_latency::total       3218780000                       # number of demand (read+write) miss cycles
system.l2.overall_miss_latency::.cpu.inst     38641500                       # number of overall miss cycles
system.l2.overall_miss_latency::.cpu.data   3180138500                       # number of overall miss cycles
system.l2.overall_miss_latency::total      3218780000                       # number of overall miss cycles
system.l2.demand_accesses::.cpu.inst           131766                       # number of demand (read+write) accesses
system.l2.demand_accesses::.cpu.data            52274                       # number of demand (read+write) accesses
system.l2.demand_accesses::total               184040                       # number of demand (read+write) accesses
system.l2.overall_accesses::.cpu.inst          131766                       # number of overall (read+write) accesses
system.l2.overall_accesses::.cpu.data           52274                       # number of overall (read+write) accesses
system.l2.overall_accesses::total              184040                       # number of overall (read+write) accesses
system.l2.demand_miss_rate::.cpu.inst        0.003901                       # miss rate for demand accesses
system.l2.demand_miss_rate::.cpu.data        0.781325                       # miss rate for demand accesses
system.l2.demand_miss_rate::total            0.224717                       # miss rate for demand accesses
system.l2.overall_miss_rate::.cpu.inst       0.003901                       # miss rate for overall accesses
system.l2.overall_miss_rate::.cpu.data       0.781325                       # miss rate for overall accesses
system.l2.overall_miss_rate::total           0.224717                       # miss rate for overall accesses
system.l2.demand_avg_miss_latency::.cpu.inst 75178.015564                       # average overall miss latency
system.l2.demand_avg_miss_latency::.cpu.data 77862.510100                       # average overall miss latency
system.l2.demand_avg_miss_latency::total 77829.146215                       # average overall miss latency
system.l2.overall_avg_miss_latency::.cpu.inst 75178.015564                       # average overall miss latency
system.l2.overall_avg_miss_latency::.cpu.data 77862.510100                       # average overall miss latency
system.l2.overall_avg_miss_latency::total 77829.146215                       # average overall miss latency
system.l2.blocked_cycles::no_mshrs                  0                       # number of cycles access was blocked
system.l2.blocked_cycles::no_targets                0                       # number of cycles access was blocked
system.l2.blocked::no_mshrs                         0                       # number of cycles access was blocked
system.l2.blocked::no_targets                       0                       # number of cycles access was blocked
system.l2.avg_blocked_cycles::no_mshrs            nan                       # average number of cycles each access was blocked
system.l2.avg_blocked_cycles::no_targets          nan                       # average number of cycles each access was blocked
system.l2.writebacks::.writebacks               24401                       # number of writebacks
system.l2.writebacks::total                     24401                       # number of writebacks
system.l2.demand_mshr_hits::.cpu.data               6                       # number of demand (read+write) MSHR hits
system.l2.demand_mshr_hits::total                   6                       # number of demand (read+write) MSHR hits
system.l2.overall_mshr_hits::.cpu.data              6                       # number of overall MSHR hits
system.l2.overall_mshr_hits::total                  6                       # number of overall MSHR hits
system.l2.demand_mshr_misses::.cpu.inst           514                       # number of demand (read+write) MSHR misses
system.l2.demand_mshr_misses::.cpu.data         40837                       # number of demand (read+write) MSHR misses
system.l2.demand_mshr_misses::total             41351                       # number of demand (read+write) MSHR misses
system.l2.overall_mshr_misses::.cpu.inst          514                       # number of overall MSHR misses
system.l2.overall_mshr_misses::.cpu.data        40837                       # number of overall MSHR misses
system.l2.overall_mshr_misses::total            41351                       # number of overall MSHR misses
system.l2.demand_mshr_miss_latency::.cpu.inst     33501500                       # number of demand (read+write) MSHR miss cycles
system.l2.demand_mshr_miss_latency::.cpu.data   2771365000                       # number of demand (read+write) MSHR miss cycles
system.l2.demand_mshr_miss_latency::total   2804866500                       # number of demand (read+write) MSHR miss cycles
system.l2.overall_mshr_miss_latency::.cpu.inst     33501500                       # number of overall MSHR miss cycles
system.l2.overall_mshr_miss_latency::.cpu.data   2771365000                       # number of overall MSHR miss cycles
system.l2.overall_mshr_miss_latency::total   2804866500                       # number of overall MSHR miss cycles
system.l2.demand_mshr_miss_rate::.cpu.inst     0.003901                       # mshr miss rate for demand accesses
system.l2.demand_mshr_miss_rate::.cpu.data     0.781211                       # mshr miss rate for demand accesses
system.l2.demand_mshr_miss_rate::total       0.224685                       # mshr miss rate for demand accesses
system.l2.overall_mshr_miss_rate::.cpu.inst     0.003901                       # mshr miss rate for overall accesses
system.l2.overall_mshr_miss_rate::.cpu.data     0.781211                       # mshr miss rate for overall accesses
system.l2.overall_mshr_miss_rate::total      0.224685                       # mshr miss rate for overall accesses
system.l2.demand_avg_mshr_miss_latency::.cpu.inst 65178.015564                       # average overall mshr miss latency
system.l2.demand_avg_mshr_miss_latency::.cpu.data 67864.069349                       # average overall mshr miss latency
system.l2.demand_avg_mshr_miss_latency::total 67830.681241                       # average overall mshr miss latency
system.l2.overall_avg_mshr_miss_latency::.cpu.inst 65178.015564                       # average overall mshr miss latency
system.l2.overall_avg_mshr_miss_latency::.cpu.data 67864.069349                       # average overall mshr miss latency
system.l2.overall_avg_mshr_miss_latency::total 67830.681241                       # average overall mshr miss latency
system.l2.replacements                          24983                       # number of replacements
system.l2.WritebackDirty_hits::.writebacks        48165                       # number of WritebackDirty hits
system.l2.WritebackDirty_hits::total            48165                       # number of WritebackDirty hits
system.l2.WritebackDirty_accesses::.writebacks        48165                       # number of WritebackDirty accesses(hits+misses)
system.l2.WritebackDirty_accesses::total        48165                       # number of WritebackDirty accesses(hits+misses)
system.l2.WritebackClean_hits::.writebacks       131358                       # number of WritebackClean hits
system.l2.WritebackClean_hits::total           131358                       # number of WritebackClean hits
system.l2.WritebackClean_accesses::.writebacks       131358                       # number of WritebackClean accesses(hits+misses)
system.l2.WritebackClean_accesses::total       131358                       # number of WritebackClean accesses(hits+misses)
system.l2.CleanEvict_mshr_misses::.writebacks            3                       # number of CleanEvict MSHR misses
system.l2.CleanEvict_mshr_misses::total             3                       # number of CleanEvict MSHR misses
system.l2.CleanEvict_mshr_miss_rate::.writebacks          inf                       # mshr miss rate for CleanEvict accesses
system.l2.CleanEvict_mshr_miss_rate::total          inf                       # mshr miss rate for CleanEvict accesses
system.l2.ReadExReq_hits::.cpu.data                12                       # number of ReadExReq hits
system.l2.ReadExReq_hits::total                    12                       # number of ReadExReq hits
system.l2.ReadExReq_misses::.cpu.data           37760                       # number of ReadExReq misses
system.l2.ReadExReq_misses::total               37760                       # number of ReadExReq misses
system.l2.ReadExReq_miss_latency::.cpu.data   2899816500                       # number of ReadExReq miss cycles
system.l2.ReadExReq_miss_latency::total    2899816500                       # number of ReadExReq miss cycles
system.l2.ReadExReq_accesses::.cpu.data         37772                       # number of ReadExReq accesses(hits+misses)
system.l2.ReadExReq_accesses::total             37772                       # number of ReadExReq accesses(hits+misses)
system.l2.ReadExReq_miss_rate::.cpu.data     0.999682                       # miss rate for ReadExReq accesses
system.l2.ReadExReq_miss_rate::total         0.999682                       # miss rate for ReadExReq accesses
system.l2.ReadExReq_avg_miss_latency::.cpu.data 76795.987818                       # average ReadExReq miss latency
system.l2.ReadExReq_avg_miss_latency::total 76795.987818                       # average ReadExReq miss latency
system.l2.ReadExReq_mshr_misses::.cpu.data        37760                       # number of ReadExReq MSHR misses
system.l2.ReadExReq_mshr_misses::total          37760                       # number of ReadExReq MSHR misses
system.l2.ReadExReq_mshr_miss_latency::.cpu.data   2522216500                       # number of ReadExReq MSHR miss cycles
system.l2.ReadExReq_mshr_miss_latency::total   2522216500                       # number of ReadExReq MSHR miss cycles
system.l2.ReadExReq_mshr_miss_rate::.cpu.data     0.999682                       # mshr miss rate for ReadExReq accesses
system.l2.ReadExReq_mshr_miss_rate::total     0.999682                       # mshr miss rate for ReadExReq accesses
system.l2.ReadExReq_avg_mshr_miss_latency::.cpu.data 66795.987818                       # average ReadExReq mshr miss latency
system.l2.ReadExReq_avg_mshr_miss_latency::total 66795.987818                       # average ReadExReq mshr miss latency
system.l2.ReadCleanReq_hits::.cpu.inst         131252                       # number of ReadCleanReq hits
system.l2.ReadCleanReq_hits::total             131252                       # number of ReadCleanReq hits
system.l2.ReadCleanReq_misses::.cpu.inst          514                       # number of ReadCleanReq misses
system.l2.ReadCleanReq_misses::total              514                       # number of ReadCleanReq misses
system.l2.ReadCleanReq_miss_latency::.cpu.inst     38641500                       # number of ReadCleanReq miss cycles
system.l2.ReadCleanReq_miss_latency::total     38641500                       # number of ReadCleanReq miss cycles
system.l2.ReadCleanReq_accesses::.cpu.inst       131766                       # number of ReadCleanReq accesses(hits+misses)
system.l2.ReadCleanReq_accesses::total         131766                       # number of ReadCleanReq accesses(hits+misses)
system.l2.ReadCleanReq_miss_rate::.cpu.inst     0.003901                       # miss rate for ReadCleanReq accesses
system.l2.ReadCleanReq_miss_rate::total      0.003901                       # miss rate for ReadCleanReq accesses
system.l2.ReadCleanReq_avg_miss_latency::.cpu.inst 75178.015564                       # average ReadCleanReq miss latency
system.l2.ReadCleanReq_avg_miss_latency::total 75178.015564                       # average ReadCleanReq miss latency
system.l2.ReadCleanReq_mshr_misses::.cpu.inst          514                       # number of ReadCleanReq MSHR misses
system.l2.ReadCleanReq_mshr_misses::total          514                       # number of ReadCleanReq MSHR misses
system.l2.ReadCleanReq_mshr_miss_latency::.cpu.inst     33501500                       # number of ReadCleanReq MSHR miss cycles
system.l2.ReadCleanReq_mshr_miss_latency::total     33501500                       # number of ReadCleanReq MSHR miss cycles
system.l2.ReadCleanReq_mshr_miss_rate::.cpu.inst     0.003901                       # mshr miss rate for ReadCleanReq accesses
system.l2.ReadCleanReq_mshr_miss_rate::total     0.003901                       # mshr miss rate for ReadCleanReq accesses
system.l2.ReadCleanReq_avg_mshr_miss_latency::.cpu.inst 65178.015564                       # average ReadCleanReq mshr miss latency
system.l2.ReadCleanReq_avg_mshr_miss_latency::total 65178.015564                       # average ReadCleanReq mshr miss latency
system.l2.ReadSharedReq_hits::.cpu.data         11419                       # number of ReadSharedReq hits
system.l2.ReadSharedReq_hits::total             11419                       # number of ReadSharedReq hits
system.l2.ReadSharedReq_misses::.cpu.data         3083                       # number of ReadSharedReq misses
system.l2.ReadSharedReq_misses::total            3083                       # number of ReadSharedReq misses
system.l2.ReadSharedReq_miss_latency::.cpu.data    280322000                       # number of ReadSharedReq miss cycles
system.l2.ReadSharedReq_miss_latency::total    280322000                       # number of ReadSharedReq miss cycles
system.l2.ReadSharedReq_accesses::.cpu.data        14502                       # number of ReadSharedReq accesses(hits+misses)
system.l2.ReadSharedReq_accesses::total         14502                       # number of ReadSharedReq accesses(hits+misses)
system.l2.ReadSharedReq_miss_rate::.cpu.data     0.212591                       # miss rate for ReadSharedReq accesses
system.l2.ReadSharedReq_miss_rate::total     0.212591                       # miss rate for ReadSharedReq accesses
system.l2.ReadSharedReq_avg_miss_latency::.cpu.data 90925.072981                       # average ReadSharedReq miss latency
system.l2.ReadSharedReq_avg_miss_latency::total 90925.072981                       # average ReadSharedReq miss latency
system.l2.ReadSharedReq_mshr_hits::.cpu.data            6                       # number of ReadSharedReq MSHR hits
system.l2.ReadSharedReq_mshr_hits::total            6                       # number of ReadSharedReq MSHR hits
system.l2.ReadSharedReq_mshr_misses::.cpu.data         3077                       # number of ReadSharedReq MSHR misses
system.l2.ReadSharedReq_mshr_misses::total         3077                       # number of ReadSharedReq MSHR misses
system.l2.ReadSharedReq_mshr_miss_latency::.cpu.data    249148500                       # number of ReadSharedReq MSHR miss cycles
system.l2.ReadSharedReq_mshr_miss_latency::total    249148500                       # number of ReadSharedReq MSHR miss cycles
system.l2.ReadSharedReq_mshr_miss_rate::.cpu.data     0.212178                       # mshr miss rate for ReadSharedReq accesses
system.l2.ReadSharedReq_mshr_miss_rate::total     0.212178                       # mshr miss rate for ReadSharedReq accesses
system.l2.ReadSharedReq_avg_mshr_miss_latency::.cpu.data 80971.238219                       # average ReadSharedReq mshr miss latency
system.l2.ReadSharedReq_avg_mshr_miss_latency::total 80971.238219                       # average ReadSharedReq mshr miss latency
system.l2.power_state.pwrStateResidencyTicks::UNDEFINED  59055670000                       # Cumulative time (in ticks) in various power states
system.l2.tags.tagsinuse                 15535.729050                       # Cycle average of tags in use
system.l2.tags.total_refs                      366591                       # Total number of references to valid blocks.
system.l2.tags.sampled_refs                     41367                       # Sample count of references to valid blocks.
system.l2.tags.avg_refs                      8.861919                       # Average number of references to valid blocks.
system.l2.tags.warmup_cycle                     77000                       # Cycle when the warmup percentage was hit.
system.l2.tags.occ_blocks::.writebacks       7.991032                       # Average occupied blocks per requestor
system.l2.tags.occ_blocks::.cpu.inst        60.876747                       # Average occupied blocks per requestor
system.l2.tags.occ_blocks::.cpu.data     15466.861271                       # Average occupied blocks per requestor
system.l2.tags.occ_percent::.writebacks      0.000488                       # Average percentage of cache occupancy
system.l2.tags.occ_percent::.cpu.inst        0.003716                       # Average percentage of cache occupancy
system.l2.tags.occ_percent::.cpu.data        0.944022                       # Average percentage of cache occupancy
system.l2.tags.occ_percent::total            0.948226                       # Average percentage of cache occupancy
system.l2.tags.occ_task_id_blocks::1024         16384                       # Occupied blocks per task id
system.l2.tags.age_task_id_blocks_1024::0            4                       # Occupied blocks per task id
system.l2.tags.age_task_id_blocks_1024::1           42                       # Occupied blocks per task id
system.l2.tags.age_task_id_blocks_1024::2          491                       # Occupied blocks per task id
system.l2.tags.age_task_id_blocks_1024::3         3627                       # Occupied blocks per task id
system.l2.tags.age_task_id_blocks_1024::4        12220                       # Occupied blocks per task id
system.l2.tags.occ_task_id_percent::1024            1                       # Percentage of cache occupancy per task id
system.l2.tags.tag_accesses                   2974167                       # Number of tag accesses
system.l2.tags.data_accesses                  2974167                       # Number of data accesses
system.l2.tags.power_state.pwrStateResidencyTicks::UNDEFINED  59055670000                       # Cumulative time (in ticks) in various power states
system.cpu_voltage_domain.voltage                   1                       # Voltage in Volts
system.mem_ctrls.avgPriority_.writebacks::samples     24401.00                       # Average QoS priority value for accepted requests
system.mem_ctrls.avgPriority_.cpu.inst::samples       514.00                       # Average QoS priority value for accepted requests
system.mem_ctrls.avgPriority_.cpu.data::samples     40833.00                       # Average QoS priority value for accepted requests
system.mem_ctrls.priorityMinLatency      0.000000018750                       # per QoS priority minimum request to response latency (s)
system.mem_ctrls.priorityMaxLatency      0.001286282500                       # per QoS priority maximum request to response latency (s)
system.mem_ctrls.numReadWriteTurnArounds         1359                       # Number of turnarounds from READ to WRITE
system.mem_ctrls.numWriteReadTurnArounds         1359                       # Number of turnarounds from WRITE to READ
system.mem_ctrls.numStayReadState              122048                       # Number of times bus staying in READ state
system.mem_ctrls.numStayWriteState              23045                       # Number of times bus staying in WRITE state
system.mem_ctrls.readReqs                       41351                       # Number of read requests accepted
system.mem_ctrls.writeReqs                      24401                       # Number of write requests accepted
system.mem_ctrls.readBursts                     41351                       # Number of controller read bursts, including those serviced by the write queue
system.mem_ctrls.writeBursts                    24401                       # Number of controller write bursts, including those merged in the write queue
system.mem_ctrls.servicedByWrQ                      4                       # Number of controller read bursts serviced by the write queue
system.mem_ctrls.mergedWrBursts                     0                       # Number of controller write bursts merged with an existing one
system.mem_ctrls.neitherReadNorWriteReqs            0                       # Number of requests that are neither read nor write
system.mem_ctrls.avgRdQLen                       1.04                       # Average read queue length when enqueuing
system.mem_ctrls.avgWrQLen                      21.96                       # Average write queue length when enqueuing
system.mem_ctrls.numRdRetry                         0                       # Number of times read queue was full causing retry
system.mem_ctrls.numWrRetry                         0                       # Number of times write queue was full causing retry
system.mem_ctrls.readPktSize::0                     0                       # Read request sizes (log2)
system.mem_ctrls.readPktSize::1                     0                       # Read request sizes (log2)
system.mem_ctrls.readPktSize::2                     0                       # Read request sizes (log2)
system.mem_ctrls.readPktSize::3                     0                       # Read request sizes (log2)
system.mem_ctrls.readPktSize::4                     0                       # Read request sizes (log2)
system.mem_ctrls.readPktSize::5                     0                       # Read request sizes (log2)
system.mem_ctrls.readPktSize::6                 41351                       # Read request sizes (log2)
system.mem_ctrls.writePktSize::0                    0                       # Write request sizes (log2)
system.mem_ctrls.writePktSize::1                    0                       # Write request sizes (log2)
system.mem_ctrls.writePktSize::2                    0                       # Write request sizes (log2)
system.mem_ctrls.writePktSize::3                    0                       # Write request sizes (log2)
system.mem_ctrls.writePktSize::4                    0                       # Write request sizes (log2)
system.mem_ctrls.writePktSize::5                    0                       # Write request sizes (log2)
system.mem_ctrls.writePktSize::6                24401                       # Write request sizes (log2)
system.mem_ctrls.rdQLenPdf::0                   40241                       # What read queue length does an incoming req see
system.mem_ctrls.rdQLenPdf::1                    1094                       # What read queue length does an incoming req see
system.mem_ctrls.rdQLenPdf::2                      12                       # What read queue length does an incoming req see
system.mem_ctrls.rdQLenPdf::3                       0                       # What read queue length does an incoming req see
system.mem_ctrls.rdQLenPdf::4                       0                       # What read queue length does an incoming req see
system.mem_ctrls.rdQLenPdf::5                       0                       # What read queue length does an incoming req see
system.mem_ctrls.rdQLenPdf::6                       0                       # What read queue length does an incoming req see
system.mem_ctrls.rdQLenPdf::7                       0                       # What read queue length does an incoming req see
system.mem_ctrls.rdQLenPdf::8                       0                       # What read queue length does an incoming req see
system.mem_ctrls.rdQLenPdf::9                       0                       # What read queue length does an incoming req see
system.mem_ctrls.rdQLenPdf::10                      0                       # What read queue length does an incoming req see
system.mem_ctrls.rdQLenPdf::11                      0                       # What read queue length does an incoming req see
system.mem_ctrls.rdQLenPdf::12                      0                       # What read queue length does an incoming req see
system.mem_ctrls.rdQLenPdf::13                      0                       # What read queue length does an incoming req see
system.mem_ctrls.rdQLenPdf::14                      0                       # What read queue length does an incoming req see
system.mem_ctrls.rdQLenPdf::15                      0                       # What read queue length does an incoming req see
system.mem_ctrls.rdQLenPdf::16                      0                       # What read queue length does an incoming req see
system.mem_ctrls.rdQLenPdf::17                      0                       # What read queue length does an incoming req see
system.mem_ctrls.rdQLenPdf::18                      0                       # What read queue length does an incoming req see
system.mem_ctrls.rdQLenPdf::19                      0                       # What read queue length does an incoming req see
system.mem_ctrls.rdQLenPdf::20                      0                       # What read queue length does an incoming req see
system.mem_ctrls.rdQLenPdf::21                      0                       # What read queue length does an incoming req see
system.mem_ctrls.rdQLenPdf::22                      0                       # What read queue length does an incoming req see
system.mem_ctrls.rdQLenPdf::23                      0                       # What read queue length does an incoming req see
system.mem_ctrls.rdQLenPdf::24                      0                       # What read queue length does an incoming req see
system.mem_ctrls.rdQLenPdf::25                      0                       # What read queue length does an incoming req see
system.mem_ctrls.rdQLenPdf::26                      0                       # What read queue length does an incoming req see
system.mem_ctrls.rdQLenPdf::27                      0                       # What read queue length does an incoming req see
system.mem_ctrls.rdQLenPdf::28                      0                       # What read queue length does an incoming req see
system.mem_ctrls.rdQLenPdf::29                      0                       # What read queue length does an incoming req see
system.mem_ctrls.rdQLenPdf::30                      0                       # What read queue length does an incoming req see
system.mem_ctrls.rdQLenPdf::31                      0                       # What read queue length does an incoming req see
system.mem_ctrls.wrQLenPdf::0                       1                       # What write queue length does an incoming req see
system.mem_ctrls.wrQLenPdf::1                       1                       # What write queue length does an incoming req see
system.mem_ctrls.wrQLenPdf::2                       1                       # What write queue length does an incoming req see
system.mem_ctrls.wrQLenPdf::3                       1                       # What write queue length does an incoming req see
system.mem_ctrls.wrQLenPdf::4                       1                       # What write queue length does an incoming req see
system.mem_ctrls.wrQLenPdf::5                       1                       # What write queue length does an incoming req see
system.mem_ctrls.wrQLenPdf::6                       1                       # What write queue length does an incoming req see
system.mem_ctrls.wrQLenPdf::7                       1                       # What write queue length does an incoming req see
system.mem_ctrls.wrQLenPdf::8                       1                       # What write queue length does an incoming req see
system.mem_ctrls.wrQLenPdf::9                       1                       # What write queue length does an incoming req see
system.mem_ctrls.wrQLenPdf::10                      1                       # What write queue length does an incoming req see
system.mem_ctrls.wrQLenPdf::11                      1                       # What write queue length does an incoming req see
system.mem_ctrls.wrQLenPdf::12                      1                       # What write queue length does an incoming req see
system.mem_ctrls.wrQLenPdf::13                      1                       # What write queue length does an incoming req see
system.mem_ctrls.wrQLenPdf::14                      1                       # What write queue length does an incoming req see
system.mem_ctrls.wrQLenPdf::15                   1277                       # What write queue length does an incoming req see
system.mem_ctrls.wrQLenPdf::16                   1281                       # What write queue length does an incoming req see
system.mem_ctrls.wrQLenPdf::17                   1358                       # What write queue length does an incoming req see
system.mem_ctrls.wrQLenPdf::18                   1361                       # What write queue length does an incoming req see
system.mem_ctrls.wrQLenPdf::19                   1360                       # What write queue length does an incoming req see
system.mem_ctrls.wrQLenPdf::20                   1361                       # What write queue length does an incoming req see
system.mem_ctrls.wrQLenPdf::21                   1361                       # What write queue length does an incoming req see
system.mem_ctrls.wrQLenPdf::22                   1361                       # What write queue length does an incoming req see
system.mem_ctrls.wrQLenPdf::23                   1364                       # What write queue length does an incoming req see
system.mem_ctrls.wrQLenPdf::24                   1378                       # What write queue length does an incoming req see
system.mem_ctrls.wrQLenPdf::25                   1363                       # What write queue length does an incoming req see
system.mem_ctrls.wrQLenPdf::26                   1377                       # What write queue length does an incoming req see
system.mem_ctrls.wrQLenPdf::27                   1369                       # What write queue length does an incoming req see
system.mem_ctrls.wrQLenPdf::28                   1365                       # What write queue length does an incoming req see
system.mem_ctrls.wrQLenPdf::29                   1372                       # What write queue length does an incoming req see
system.mem_ctrls.wrQLenPdf::30                   1359                       # What write queue length does an incoming req see
system.mem_ctrls.wrQLenPdf::31                   1359                       # What write queue length does an incoming req see
system.mem_ctrls.wrQLenPdf::32                   1359                       # What write queue length does an incoming req see
system.mem_ctrls.wrQLenPdf::33                      1                       # What write queue length does an incoming req see
system.mem_ctrls.wrQLenPdf::34                      0                       # What write queue length does an incoming req see
system.mem_ctrls.wrQLenPdf::35                      0                       # What write queue length does an incoming req see
system.mem_ctrls.wrQLenPdf::36                      0                       # What write queue length does an incoming req see
system.mem_ctrls.wrQLenPdf::37                      0                       # What write queue length does an incoming req see
system.mem_ctrls.wrQLenPdf::38                      0                       # What write queue length does an incoming req see
system.mem_ctrls.wrQLenPdf::39                      0                       # What write queue length does an incoming req see
system.mem_ctrls.wrQLenPdf::40                      0                       # What write queue length does an incoming req see
system.mem_ctrls.wrQLenPdf::41                      0                       # What write queue length does an incoming req see
system.mem_ctrls.wrQLenPdf::42                      0                       # What write queue length does an incoming req see
system.mem_ctrls.wrQLenPdf::43                      0                       # What write queue length does an incoming req see
system.mem_ctrls.wrQLenPdf::44                      0                       # What write queue length does an incoming req see
system.mem_ctrls.wrQLenPdf::45                      0                       # What write queue length does an incoming req see
system.mem_ctrls.wrQLenPdf::46                      0                       # What write queue length does an incoming req see
system.mem_ctrls.wrQLenPdf::47                      0                       # What write queue length does an incoming req see
system.mem_ctrls.wrQLenPdf::48                      0                       # What write queue length does an incoming req see
system.mem_ctrls.wrQLenPdf::49                      0                       # What write queue length does an incoming req see
system.mem_ctrls.wrQLenPdf::50                      0                       # What write queue length does an incoming req see
system.mem_ctrls.wrQLenPdf::51                      0                       # What write queue length does an incoming req see
system.mem_ctrls.wrQLenPdf::52                      0                       # What write queue length does an incoming req see
system.mem_ctrls.wrQLenPdf::53                      0                       # What write queue length does an incoming req see
system.mem_ctrls.wrQLenPdf::54                      0                       # What write queue length does an incoming req see
system.mem_ctrls.wrQLenPdf::55                      0                       # What write queue length does an incoming req see
system.mem_ctrls.wrQLenPdf::56                      0                       # What write queue length does an incoming req see
system.mem_ctrls.wrQLenPdf::57                      0                       # What write queue length does an incoming req see
system.mem_ctrls.wrQLenPdf::58                      0                       # What write queue length does an incoming req see
system.mem_ctrls.wrQLenPdf::59                      0                       # What write queue length does an incoming req see
system.mem_ctrls.wrQLenPdf::60                      0                       # What write queue length does an incoming req see
system.mem_ctrls.wrQLenPdf::61                      0                       # What write queue length does an incoming req see
system.mem_ctrls.wrQLenPdf::62                      0                       # What write queue length does an incoming req see
system.mem_ctrls.wrQLenPdf::63                      0                       # What write queue length does an incoming req see
system.mem_ctrls.rdPerTurnAround::samples         1359                       # Reads before turning the bus around for writes
system.mem_ctrls.rdPerTurnAround::mean      30.417219                       # Reads before turning the bus around for writes
system.mem_ctrls.rdPerTurnAround::gmean     18.227262                       # Reads before turning the bus around for writes
system.mem_ctrls.rdPerTurnAround::stdev    440.754326                       # Reads before turning the bus around for writes
system.mem_ctrls.rdPerTurnAround::0-511          1358     99.93%     99.93% # Reads before turning the bus around for writes
system.mem_ctrls.rdPerTurnAround::15872-16383            1      0.07%    100.00% # Reads before turning the bus around for writes
system.mem_ctrls.rdPerTurnAround::total          1359                       # Reads before turning the bus around for writes
system.mem_ctrls.wrPerTurnAround::samples         1359                       # Writes before turning the bus around for reads
system.mem_ctrls.wrPerTurnAround::mean      17.936718                       # Writes before turning the bus around for reads
system.mem_ctrls.wrPerTurnAround::gmean     17.928297                       # Writes before turning the bus around for reads
system.mem_ctrls.wrPerTurnAround::stdev      0.536281                       # Writes before turning the bus around for reads
system.mem_ctrls.wrPerTurnAround::16               79      5.81%      5.81% # Writes before turning the bus around for reads
system.mem_ctrls.wrPerTurnAround::17                4      0.29%      6.11% # Writes before turning the bus around for reads
system.mem_ctrls.wrPerTurnAround::18             1200     88.30%     94.41% # Writes before turning the bus around for reads
system.mem_ctrls.wrPerTurnAround::19               76      5.59%    100.00% # Writes before turning the bus around for reads
system.mem_ctrls.wrPerTurnAround::total          1359                       # Writes before turning the bus around for reads
system.mem_ctrls.bytesReadWrQ                     256                       # Total number of bytes read from write queue
system.mem_ctrls.bytesReadSys                 2646464                       # Total read bytes from the system interface side
system.mem_ctrls.bytesWrittenSys              1561664                       # Total written bytes from the system interface side
system.mem_ctrls.avgRdBWSys                     44.81                       # Average system read bandwidth in MiByte/s
system.mem_ctrls.avgWrBWSys                     26.44                       # Average system write bandwidth in MiByte/s
system.mem_ctrls.totGap                   59053295000                       # Total gap between requests
system.mem_ctrls.avgGap                     898121.65                       # Average gap between requests
system.mem_ctrls.requestorReadBytes::.cpu.inst        32896                       # Per-requestor bytes read from memory
system.mem_ctrls.requestorReadBytes::.cpu.data      2613312                       # Per-requestor bytes read from memory
system.mem_ctrls.requestorWriteBytes::.writebacks      1560064                       # Per-requestor bytes write to memory
system.mem_ctrls.requestorReadRate::.cpu.inst 557033.727667470346                       # Per-requestor bytes read from memory rate (Bytes/sec)
system.mem_ctrls.requestorReadRate::.cpu.data 44251669.653396531940                       # Per-requestor bytes read from memory rate (Bytes/sec)
system.mem_ctrls.requestorWriteRate::.writebacks 26416836.859187271446                       # Per-requestor bytes write to memory rate (Bytes/sec)
system.mem_ctrls.requestorReadAccesses::.cpu.inst          514                       # Per-requestor read serviced memory accesses
system.mem_ctrls.requestorReadAccesses::.cpu.data        40837                       # Per-requestor read serviced memory accesses
system.mem_ctrls.requestorWriteAccesses::.writebacks        24401                       # Per-requestor write serviced memory accesses
system.mem_ctrls.requestorReadTotalLat::.cpu.inst     12466750                       # Per-requestor read total memory access latency
system.mem_ctrls.requestorReadTotalLat::.cpu.data   1095079250                       # Per-requestor read total memory access latency
system.mem_ctrls.requestorWriteTotalLat::.writebacks 1242590169000                       # Per-requestor write total memory access latency
system.mem_ctrls.requestorReadAvgLat::.cpu.inst     24254.38                       # Per-requestor read average memory access latency
system.mem_ctrls.requestorReadAvgLat::.cpu.data     26815.86                       # Per-requestor read average memory access latency
system.mem_ctrls.requestorWriteAvgLat::.writebacks  50923739.56                       # Per-requestor write average memory access latency
system.mem_ctrls.dram.bytes_read::.cpu.inst        32896                       # Number of bytes read from this memory
system.mem_ctrls.dram.bytes_read::.cpu.data      2613568                       # Number of bytes read from this memory
system.mem_ctrls.dram.bytes_read::total       2646464                       # Number of bytes read from this memory
system.mem_ctrls.dram.bytes_inst_read::.cpu.inst        32896                       # Number of instructions bytes read from this memory
system.mem_ctrls.dram.bytes_inst_read::total        32896                       # Number of instructions bytes read from this memory
system.mem_ctrls.dram.bytes_written::.writebacks      1561664                       # Number of bytes written to this memory
system.mem_ctrls.dram.bytes_written::total      1561664                       # Number of bytes written to this memory
system.mem_ctrls.dram.num_reads::.cpu.inst          514                       # Number of read requests responded to by this memory
system.mem_ctrls.dram.num_reads::.cpu.data        40837                       # Number of read requests responded to by this memory
system.mem_ctrls.dram.num_reads::total          41351                       # Number of read requests responded to by this memory
system.mem_ctrls.dram.num_writes::.writebacks        24401                       # Number of write requests responded to by this memory
system.mem_ctrls.dram.num_writes::total         24401                       # Number of write requests responded to by this memory
system.mem_ctrls.dram.bw_read::.cpu.inst       557034                       # Total read bandwidth from this memory (bytes/s)
system.mem_ctrls.dram.bw_read::.cpu.data     44256005                       # Total read bandwidth from this memory (bytes/s)
system.mem_ctrls.dram.bw_read::total         44813038                       # Total read bandwidth from this memory (bytes/s)
system.mem_ctrls.dram.bw_inst_read::.cpu.inst       557034                       # Instruction read bandwidth from this memory (bytes/s)
system.mem_ctrls.dram.bw_inst_read::total       557034                       # Instruction read bandwidth from this memory (bytes/s)
system.mem_ctrls.dram.bw_write::.writebacks     26443930                       # Write bandwidth from this memory (bytes/s)
system.mem_ctrls.dram.bw_write::total        26443930                       # Write bandwidth from this memory (bytes/s)
system.mem_ctrls.dram.bw_total::.writebacks     26443930                       # Total bandwidth to/from this memory (bytes/s)
system.mem_ctrls.dram.bw_total::.cpu.inst       557034                       # Total bandwidth to/from this memory (bytes/s)
system.mem_ctrls.dram.bw_total::.cpu.data     44256005                       # Total bandwidth to/from this memory (bytes/s)
system.mem_ctrls.dram.bw_total::total        71256968                       # Total bandwidth to/from this memory (bytes/s)
system.mem_ctrls.dram.readBursts                41347                       # Number of DRAM read bursts
system.mem_ctrls.dram.writeBursts               24376                       # Number of DRAM write bursts
system.mem_ctrls.dram.perBankRdBursts::0         2519                       # Per bank write bursts
system.mem_ctrls.dram.perBankRdBursts::1         2517                       # Per bank write bursts
system.mem_ctrls.dram.perBankRdBursts::2         2516                       # Per bank write bursts
system.mem_ctrls.dram.perBankRdBursts::3         2678                       # Per bank write bursts
system.mem_ctrls.dram.perBankRdBursts::4         2611                       # Per bank write bursts
system.mem_ctrls.dram.perBankRdBursts::5         2654                       # Per bank write bursts
system.mem_ctrls.dram.perBankRdBursts::6         2708                       # Per bank write bursts
system.mem_ctrls.dram.perBankRdBursts::7         2605                       # Per bank write bursts
system.mem_ctrls.dram.perBankRdBursts::8         2654                       # Per bank write bursts
system.mem_ctrls.dram.perBankRdBursts::9         2665                       # Per bank write bursts
system.mem_ctrls.dram.perBankRdBursts::10         2637                       # Per bank write bursts
system.mem_ctrls.dram.perBankRdBursts::11         2520                       # Per bank write bursts
system.mem_ctrls.dram.perBankRdBursts::12         2521                       # Per bank write bursts
system.mem_ctrls.dram.perBankRdBursts::13         2471                       # Per bank write bursts
system.mem_ctrls.dram.perBankRdBursts::14         2533                       # Per bank write bursts
system.mem_ctrls.dram.perBankRdBursts::15         2538                       # Per bank write bursts
system.mem_ctrls.dram.perBankWrBursts::0         1441                       # Per bank write bursts
system.mem_ctrls.dram.perBankWrBursts::1         1461                       # Per bank write bursts
system.mem_ctrls.dram.perBankWrBursts::2         1479                       # Per bank write bursts
system.mem_ctrls.dram.perBankWrBursts::3         1593                       # Per bank write bursts
system.mem_ctrls.dram.perBankWrBursts::4         1489                       # Per bank write bursts
system.mem_ctrls.dram.perBankWrBursts::5         1592                       # Per bank write bursts
system.mem_ctrls.dram.perBankWrBursts::6         1623                       # Per bank write bursts
system.mem_ctrls.dram.perBankWrBursts::7         1551                       # Per bank write bursts
system.mem_ctrls.dram.perBankWrBursts::8         1582                       # Per bank write bursts
system.mem_ctrls.dram.perBankWrBursts::9         1620                       # Per bank write bursts
system.mem_ctrls.dram.perBankWrBursts::10         1553                       # Per bank write bursts
system.mem_ctrls.dram.perBankWrBursts::11         1456                       # Per bank write bursts
system.mem_ctrls.dram.perBankWrBursts::12         1496                       # Per bank write bursts
system.mem_ctrls.dram.perBankWrBursts::13         1446                       # Per bank write bursts
system.mem_ctrls.dram.perBankWrBursts::14         1486                       # Per bank write bursts
system.mem_ctrls.dram.perBankWrBursts::15         1508                       # Per bank write bursts
system.mem_ctrls.dram.totQLat               332289750                       # Total ticks spent queuing
system.mem_ctrls.dram.totBusLat             206735000                       # Total ticks spent in databus transfers
system.mem_ctrls.dram.totMemAccLat         1107546000                       # Total ticks spent from burst creation until serviced by the DRAM
system.mem_ctrls.dram.avgQLat                 8036.61                       # Average queueing delay per DRAM burst
system.mem_ctrls.dram.avgBusLat               5000.00                       # Average bus latency per DRAM burst
system.mem_ctrls.dram.avgMemAccLat           26786.61                       # Average memory access latency per DRAM burst
system.mem_ctrls.dram.readRowHits               28205                       # Number of row buffer hits during reads
system.mem_ctrls.dram.writeRowHits              18469                       # Number of row buffer hits during writes
system.mem_ctrls.dram.readRowHitRate            68.22                       # Row buffer hit rate for reads
system.mem_ctrls.dram.writeRowHitRate           75.77                       # Row buffer hit rate for writes
system.mem_ctrls.dram.bytesPerActivate::samples        19048                       # Bytes accessed per row activation
system.mem_ctrls.dram.bytesPerActivate::mean   220.821504                       # Bytes accessed per row activation
system.mem_ctrls.dram.bytesPerActivate::gmean   151.147932                       # Bytes accessed per row activation
system.mem_ctrls.dram.bytesPerActivate::stdev   229.078252                       # Bytes accessed per row activation
system.mem_ctrls.dram.bytesPerActivate::0-127         6838     35.90%     35.90% # Bytes accessed per row activation
system.mem_ctrls.dram.bytesPerActivate::128-255         7943     41.70%     77.60% # Bytes accessed per row activation
system.mem_ctrls.dram.bytesPerActivate::256-383         1242      6.52%     84.12% # Bytes accessed per row activation
system.mem_ctrls.dram.bytesPerActivate::384-511          645      3.39%     87.51% # Bytes accessed per row activation
system.mem_ctrls.dram.bytesPerActivate::512-639          660      3.46%     90.97% # Bytes accessed per row activation
system.mem_ctrls.dram.bytesPerActivate::640-767          479      2.51%     93.48% # Bytes accessed per row activation
system.mem_ctrls.dram.bytesPerActivate::768-895          352      1.85%     95.33% # Bytes accessed per row activation
system.mem_ctrls.dram.bytesPerActivate::896-1023          554      2.91%     98.24% # Bytes accessed per row activation
system.mem_ctrls.dram.bytesPerActivate::1024-1151          335      1.76%    100.00% # Bytes accessed per row activation
system.mem_ctrls.dram.bytesPerActivate::total        19048                       # Bytes accessed per row activation
system.mem_ctrls.dram.bytesRead               2646208                       # Total number of bytes read from DRAM
system.mem_ctrls.dram.bytesWritten            1560064                       # Total number of bytes written to DRAM
system.mem_ctrls.dram.avgRdBW               44.808703                       # Average DRAM read bandwidth in MiBytes/s
system.mem_ctrls.dram.avgWrBW               26.416837                       # Average DRAM write bandwidth in MiBytes/s
system.mem_ctrls.dram.peakBW                 12800.00                       # Theoretical peak bandwidth in MiByte/s
system.mem_ctrls.dram.busUtil                    0.56                       # Data bus utilization in percentage
system.mem_ctrls.dram.busUtilRead                0.35                       # Data bus utilization in percentage for reads
system.mem_ctrls.dram.busUtilWrite               0.21                       # Data bus utilization in percentage for writes
system.mem_ctrls.dram.pageHitRate               71.02                       # Row buffer hit rate, read and write combined
system.mem_ctrls.dram.rank1.actEnergy        66908940                       # Energy for activate commands per rank (pJ)
system.mem_ctrls.dram.rank1.preEnergy        35559150                       # Energy for precharge commands per rank (pJ)
system.mem_ctrls.dram.rank1.readEnergy      146648460                       # Energy for read commands per rank (pJ)
system.mem_ctrls.dram.rank1.writeEnergy      63407340                       # Energy for write commands per rank (pJ)
system.mem_ctrls.dram.rank1.refreshEnergy 4661429760.000001                       # Energy for refresh commands per rank (pJ)
system.mem_ctrls.dram.rank1.actBackEnergy  13618075770                       # Energy for active background per rank (pJ)
system.mem_ctrls.dram.rank1.preBackEnergy  11209524000                       # Energy for precharge background per rank (pJ)
system.mem_ctrls.dram.rank1.actPowerDownEnergy            0                       # Energy for active power-down per rank (pJ)
system.mem_ctrls.dram.rank1.prePowerDownEnergy            0                       # Energy for precharge power-down per rank (pJ)
system.mem_ctrls.dram.rank1.selfRefreshEnergy            0                       # Energy for self refresh per rank (pJ)
system.mem_ctrls.dram.rank1.totalEnergy   29801553420                       # Total energy per rank (pJ)
system.mem_ctrls.dram.rank1.averagePower   504.634922                       # Core power per rank (mW)
system.mem_ctrls.dram.rank1.totalIdleTime            0                       # Total Idle time Per DRAM Rank
system.mem_ctrls.dram.rank1.pwrStateTime::IDLE  29009133500                       # Time in different power states
system.mem_ctrls.dram.rank1.pwrStateTime::REF   1971840000                       # Time in different power states
system.mem_ctrls.dram.rank1.pwrStateTime::SREF            0                       # Time in different power states
system.mem_ctrls.dram.rank1.pwrStateTime::PRE_PDN            0                       # Time in different power states
system.mem_ctrls.dram.rank1.pwrStateTime::ACT  28074696500                       # Time in different power states
system.mem_ctrls.dram.rank1.pwrStateTime::ACT_PDN            0                       # Time in different power states
system.mem_ctrls.dram.rank0.actEnergy        69100920                       # Energy for activate commands per rank (pJ)
system.mem_ctrls.dram.rank0.preEnergy        36728010                       # Energy for precharge commands per rank (pJ)
system.mem_ctrls.dram.rank0.readEnergy      148569120                       # Energy for read commands per rank (pJ)
system.mem_ctrls.dram.rank0.writeEnergy      63835380                       # Energy for write commands per rank (pJ)
system.mem_ctrls.dram.rank0.refreshEnergy 4661429760.000001                       # Energy for refresh commands per rank (pJ)
system.mem_ctrls.dram.rank0.actBackEnergy  13793172930                       # Energy for active background per rank (pJ)
system.mem_ctrls.dram.rank0.preBackEnergy  11062073760                       # Energy for precharge background per rank (pJ)
system.mem_ctrls.dram.rank0.actPowerDownEnergy            0                       # Energy for active power-down per rank (pJ)
system.mem_ctrls.dram.rank0.prePowerDownEnergy            0                       # Energy for precharge power-down per rank (pJ)
system.mem_ctrls.dram.rank0.selfRefreshEnergy            0                       # Energy for self refresh per rank (pJ)
system.mem_ctrls.dram.rank0.totalEnergy   29834909880                       # Total energy per rank (pJ)
system.mem_ctrls.dram.rank0.averagePower   505.199753                       # Core power per rank (mW)
system.mem_ctrls.dram.rank0.totalIdleTime            0                       # Total Idle time Per DRAM Rank
system.mem_ctrls.dram.rank0.pwrStateTime::IDLE  28624988750                       # Time in different power states
system.mem_ctrls.dram.rank0.pwrStateTime::REF   1971840000                       # Time in different power states
system.mem_ctrls.dram.rank0.pwrStateTime::SREF            0                       # Time in different power states
system.mem_ctrls.dram.rank0.pwrStateTime::PRE_PDN            0                       # Time in different power states
system.mem_ctrls.dram.rank0.pwrStateTime::ACT  28458841250                       # Time in different power states
system.mem_ctrls.dram.rank0.pwrStateTime::ACT_PDN            0                       # Time in different power states
system.mem_ctrls.dram.power_state.pwrStateResidencyTicks::UNDEFINED  59055670000                       # Cumulative time (in ticks) in various power states
system.mem_ctrls.power_state.pwrStateResidencyTicks::UNDEFINED  59055670000                       # Cumulative time (in ticks) in various power states
system.cpu_clk_domain.clock                       500                       # Clock period in ticks
system.cpu.icache.demand_hits::.cpu.inst     30316787                       # number of demand (read+write) hits
system.cpu.icache.demand_hits::total         30316787                       # number of demand (read+write) hits
system.cpu.icache.overall_hits::.cpu.inst     30316787                       # number of overall hits
system.cpu.icache.overall_hits::total        30316787                       # number of overall hits
system.cpu.icache.demand_misses::.cpu.inst       131766                       # number of demand (read+write) misses
system.cpu.icache.demand_misses::total         131766                       # number of demand (read+write) misses
system.cpu.icache.overall_misses::.cpu.inst       131766                       # number of overall misses
system.cpu.icache.overall_misses::total        131766                       # number of overall misses
system.cpu.icache.demand_miss_latency::.cpu.inst   1746206500                       # number of demand (read+write) miss cycles
system.cpu.icache.demand_miss_latency::total   1746206500                       # number of demand (read+write) miss cycles
system.cpu.icache.overall_miss_latency::.cpu.inst   1746206500                       # number of overall miss cycles
system.cpu.icache.overall_miss_latency::total   1746206500                       # number of overall miss cycles
system.cpu.icache.demand_accesses::.cpu.inst     30448553                       # number of demand (read+write) accesses
system.cpu.icache.demand_accesses::total     30448553                       # number of demand (read+write) accesses
system.cpu.icache.overall_accesses::.cpu.inst     30448553                       # number of overall (read+write) accesses
system.cpu.icache.overall_accesses::total     30448553                       # number of overall (read+write) accesses
system.cpu.icache.demand_miss_rate::.cpu.inst     0.004327                       # miss rate for demand accesses
system.cpu.icache.demand_miss_rate::total     0.004327                       # miss rate for demand accesses
system.cpu.icache.overall_miss_rate::.cpu.inst     0.004327                       # miss rate for overall accesses
system.cpu.icache.overall_miss_rate::total     0.004327                       # miss rate for overall accesses
system.cpu.icache.demand_avg_miss_latency::.cpu.inst 13252.329888                       # average overall miss latency
system.cpu.icache.demand_avg_miss_latency::total 13252.329888                       # average overall miss latency
system.cpu.icache.overall_avg_miss_latency::.cpu.inst 13252.329888                       # average overall miss latency
system.cpu.icache.overall_avg_miss_latency::total 13252.329888                       # average overall miss latency
system.cpu.icache.blocked_cycles::no_mshrs            0                       # number of cycles access was blocked
system.cpu.icache.blocked_cycles::no_targets            0                       # number of cycles access was blocked
system.cpu.icache.blocked::no_mshrs                 0                       # number of cycles access was blocked
system.cpu.icache.blocked::no_targets               0                       # number of cycles access was blocked
system.cpu.icache.avg_blocked_cycles::no_mshrs          nan                       # average number of cycles each access was blocked
system.cpu.icache.avg_blocked_cycles::no_targets          nan                       # average number of cycles each access was blocked
system.cpu.icache.writebacks::.writebacks       131363                       # number of writebacks
system.cpu.icache.writebacks::total            131363                       # number of writebacks
system.cpu.icache.demand_mshr_misses::.cpu.inst       131766                       # number of demand (read+write) MSHR misses
system.cpu.icache.demand_mshr_misses::total       131766                       # number of demand (read+write) MSHR misses
system.cpu.icache.overall_mshr_misses::.cpu.inst       131766                       # number of overall MSHR misses
system.cpu.icache.overall_mshr_misses::total       131766                       # number of overall MSHR misses
system.cpu.icache.demand_mshr_miss_latency::.cpu.inst   1614440500                       # number of demand (read+write) MSHR miss cycles
system.cpu.icache.demand_mshr_miss_latency::total   1614440500                       # number of demand (read+write) MSHR miss cycles
system.cpu.icache.overall_mshr_miss_latency::.cpu.inst   1614440500                       # number of overall MSHR miss cycles
system.cpu.icache.overall_mshr_miss_latency::total   1614440500                       # number of overall MSHR miss cycles
system.cpu.icache.demand_mshr_miss_rate::.cpu.inst     0.004327                       # mshr miss rate for demand accesses
system.cpu.icache.demand_mshr_miss_rate::total     0.004327                       # mshr miss rate for demand accesses
system.cpu.icache.overall_mshr_miss_rate::.cpu.inst     0.004327                       # mshr miss rate for overall accesses
system.cpu.icache.overall_mshr_miss_rate::total     0.004327                       # mshr miss rate for overall accesses
system.cpu.icache.demand_avg_mshr_miss_latency::.cpu.inst 12252.329888                       # average overall mshr miss latency
system.cpu.icache.demand_avg_mshr_miss_latency::total 12252.329888                       # average overall mshr miss latency
system.cpu.icache.overall_avg_mshr_miss_latency::.cpu.inst 12252.329888                       # average overall mshr miss latency
system.cpu.icache.overall_avg_mshr_miss_latency::total 12252.329888                       # average overall mshr miss latency
system.cpu.icache.replacements                 131363                       # number of replacements
system.cpu.icache.ReadReq_hits::.cpu.inst     30316787                       # number of ReadReq hits
system.cpu.icache.ReadReq_hits::total        30316787                       # number of ReadReq hits
system.cpu.icache.ReadReq_misses::.cpu.inst       131766                       # number of ReadReq misses
system.cpu.icache.ReadReq_misses::total        131766                       # number of ReadReq misses
[...]
system.cpu.dcache.ReadReq_avg_mshr_miss_latency::total 29063.178268                       # average ReadReq mshr miss latency
system.cpu.dcache.WriteReq_hits::.cpu.data     13874163                       # number of WriteReq hits
system.cpu.dcache.WriteReq_hits::total       13874163                       # number of WriteReq hits
system.cpu.dcache.WriteReq_misses::.cpu.data        54286                       # number of WriteReq misses
system.cpu.dcache.WriteReq_misses::total        54286                       # number of WriteReq misses
system.cpu.dcache.WriteReq_miss_latency::.cpu.data   3983763500                       # number of WriteReq miss cycles
system.cpu.dcache.WriteReq_miss_latency::total   3983763500                       # number of WriteReq miss cycles
system.cpu.dcache.WriteReq_accesses::.cpu.data     13928449                       # number of WriteReq accesses(hits+misses)
system.cpu.dcache.WriteReq_accesses::total     13928449                       # number of WriteReq accesses(hits+misses)
system.cpu.dcache.WriteReq_miss_rate::.cpu.data     0.003897                       # miss rate for WriteReq accesses
system.cpu.dcache.WriteReq_miss_rate::total     0.003897                       # miss rate for WriteReq accesses
system.cpu.dcache.WriteReq_avg_miss_latency::.cpu.data 73384.730870                       # average WriteReq miss latency
system.cpu.dcache.WriteReq_avg_miss_latency::total 73384.730870                       # average WriteReq miss latency
system.cpu.dcache.WriteReq_mshr_hits::.cpu.data        16514                       # number of WriteReq MSHR hits
system.cpu.dcache.WriteReq_mshr_hits::total        16514                       # number of WriteReq MSHR hits
system.cpu.dcache.WriteReq_mshr_misses::.cpu.data        37772                       # number of WriteReq MSHR misses
system.cpu.dcache.WriteReq_mshr_misses::total        37772                       # number of WriteReq MSHR misses
system.cpu.dcache.WriteReq_mshr_miss_latency::.cpu.data   2956601500                       # number of WriteReq MSHR miss cycles
system.cpu.dcache.WriteReq_mshr_miss_latency::total   2956601500                       # number of WriteReq MSHR miss cycles
system.cpu.dcache.WriteReq_mshr_miss_rate::.cpu.data     0.002712                       # mshr miss rate for WriteReq accesses
system.cpu.dcache.WriteReq_mshr_miss_rate::total     0.002712                       # mshr miss rate for WriteReq accesses
system.cpu.dcache.WriteReq_avg_mshr_miss_latency::.cpu.data 78274.952346                       # average WriteReq mshr miss latency
system.cpu.dcache.WriteReq_avg_mshr_miss_latency::total 78274.952346                       # average WriteReq mshr miss latency
system.cpu.dcache.SoftPFReq_hits::.cpu.data         3018                       # number of SoftPFReq hits
system.cpu.dcache.SoftPFReq_hits::total          3018                       # number of SoftPFReq hits
system.cpu.dcache.SoftPFReq_misses::.cpu.data           39                       # number of SoftPFReq misses
system.cpu.dcache.SoftPFReq_misses::total           39                       # number of SoftPFReq misses
system.cpu.dcache.SoftPFReq_accesses::.cpu.data         3057                       # number of SoftPFReq accesses(hits+misses)
system.cpu.dcache.SoftPFReq_accesses::total         3057                       # number of SoftPFReq accesses(hits+misses)
system.cpu.dcache.SoftPFReq_miss_rate::.cpu.data     0.012758                       # miss rate for SoftPFReq accesses
system.cpu.dcache.SoftPFReq_miss_rate::total     0.012758                       # miss rate for SoftPFReq accesses
system.cpu.dcache.SoftPFReq_mshr_misses::.cpu.data           34                       # number of SoftPFReq MSHR misses
system.cpu.dcache.SoftPFReq_mshr_misses::total           34                       # number of SoftPFReq MSHR misses
system.cpu.dcache.SoftPFReq_mshr_miss_latency::.cpu.data      1481000                       # number of SoftPFReq MSHR miss cycles
system.cpu.dcache.SoftPFReq_mshr_miss_latency::total      1481000                       # number of SoftPFReq MSHR miss cycles
system.cpu.dcache.SoftPFReq_mshr_miss_rate::.cpu.data     0.011122                       # mshr miss rate for SoftPFReq accesses
system.cpu.dcache.SoftPFReq_mshr_miss_rate::total     0.011122                       # mshr miss rate for SoftPFReq accesses
system.cpu.dcache.SoftPFReq_avg_mshr_miss_latency::.cpu.data 43558.823529                       # average SoftPFReq mshr miss latency
system.cpu.dcache.SoftPFReq_avg_mshr_miss_latency::total 43558.823529                       # average SoftPFReq mshr miss latency
system.cpu.dcache.LoadLockedReq_hits::.cpu.data        84956                       # number of LoadLockedReq hits
system.cpu.dcache.LoadLockedReq_hits::total        84956                       # number of LoadLockedReq hits
system.cpu.dcache.LoadLockedReq_misses::.cpu.data            1                       # number of LoadLockedReq misses
system.cpu.dcache.LoadLockedReq_misses::total            1                       # number of LoadLockedReq misses
system.cpu.dcache.LoadLockedReq_miss_latency::.cpu.data        86000                       # number of LoadLockedReq miss cycles
system.cpu.dcache.LoadLockedReq_miss_latency::total        86000                       # number of LoadLockedReq miss cycles
system.cpu.dcache.LoadLockedReq_accesses::.cpu.data        84957                       # number of LoadLockedReq accesses(hits+misses)
system.cpu.dcache.LoadLockedReq_accesses::total        84957                       # number of LoadLockedReq accesses(hits+misses)
system.cpu.dcache.LoadLockedReq_miss_rate::.cpu.data     0.000012                       # miss rate for LoadLockedReq accesses
system.cpu.dcache.LoadLockedReq_miss_rate::total     0.000012                       # miss rate for LoadLockedReq accesses
system.cpu.dcache.LoadLockedReq_avg_miss_latency::.cpu.data        86000                       # average LoadLockedReq miss latency
system.cpu.dcache.LoadLockedReq_avg_miss_latency::total        86000                       # average LoadLockedReq miss latency
system.cpu.dcache.LoadLockedReq_mshr_misses::.cpu.data            1                       # number of LoadLockedReq MSHR misses
system.cpu.dcache.LoadLockedReq_mshr_misses::total            1                       # number of LoadLockedReq MSHR misses
system.cpu.dcache.LoadLockedReq_mshr_miss_latency::.cpu.data        85000                       # number of LoadLockedReq MSHR miss cycles
system.cpu.dcache.LoadLockedReq_mshr_miss_latency::total        85000                       # number of LoadLockedReq MSHR miss cycles
system.cpu.dcache.LoadLockedReq_mshr_miss_rate::.cpu.data     0.000012                       # mshr miss rate for LoadLockedReq accesses
system.cpu.dcache.LoadLockedReq_mshr_miss_rate::total     0.000012                       # mshr miss rate for LoadLockedReq accesses
system.cpu.dcache.LoadLockedReq_avg_mshr_miss_latency::.cpu.data        85000                       # average LoadLockedReq mshr miss latency
system.cpu.dcache.LoadLockedReq_avg_mshr_miss_latency::total        85000                       # average LoadLockedReq mshr miss latency
system.cpu.dcache.StoreCondReq_hits::.cpu.data        84957                       # number of StoreCondReq hits
system.cpu.dcache.StoreCondReq_hits::total        84957                       # number of StoreCondReq hits
system.cpu.dcache.StoreCondReq_accesses::.cpu.data        84957                       # number of StoreCondReq accesses(hits+misses)
system.cpu.dcache.StoreCondReq_accesses::total        84957                       # number of StoreCondReq accesses(hits+misses)
system.cpu.dcache.power_state.pwrStateResidencyTicks::UNDEFINED  59055670000                       # Cumulative time (in ticks) in various power states
system.cpu.dcache.tags.tagsinuse          1020.330450                       # Cycle average of tags in use
system.cpu.dcache.tags.total_refs            35550718                       # Total number of references to valid blocks.
system.cpu.dcache.tags.sampled_refs             52274                       # Sample count of references to valid blocks.
system.cpu.dcache.tags.avg_refs            680.084134                       # Average number of references to valid blocks.
system.cpu.dcache.tags.warmup_cycle            195500                       # Cycle when the warmup percentage was hit.
system.cpu.dcache.tags.occ_blocks::.cpu.data  1020.330450                       # Average occupied blocks per requestor
system.cpu.dcache.tags.occ_percent::.cpu.data     0.996416                       # Average percentage of cache occupancy
system.cpu.dcache.tags.occ_percent::total     0.996416                       # Average percentage of cache occupancy
system.cpu.dcache.tags.occ_task_id_blocks::1024         1024                       # Occupied blocks per task id
system.cpu.dcache.tags.age_task_id_blocks_1024::0            5                       # Occupied blocks per task id
system.cpu.dcache.tags.age_task_id_blocks_1024::1           43                       # Occupied blocks per task id
system.cpu.dcache.tags.age_task_id_blocks_1024::2          492                       # Occupied blocks per task id
system.cpu.dcache.tags.age_task_id_blocks_1024::3          441                       # Occupied blocks per task id
system.cpu.dcache.tags.age_task_id_blocks_1024::4           43                       # Occupied blocks per task id
system.cpu.dcache.tags.occ_task_id_percent::1024            1                       # Percentage of cache occupancy per task id
system.cpu.dcache.tags.tag_accesses          71186770                       # Number of tag accesses
system.cpu.dcache.tags.data_accesses         71186770                       # Number of data accesses
system.cpu.dcache.tags.power_state.pwrStateResidencyTicks::UNDEFINED  59055670000                       # Cumulative time (in ticks) in various power states
system.cpu.power_state.pwrStateResidencyTicks::ON  59055670000                       # Cumulative time (in ticks) in various power states
system.cpu.branchPred.lookups                20568805                       # Number of BP lookups
system.cpu.branchPred.condPredicted          15666894                       # Number of conditional branches predicted
system.cpu.branchPred.condIncorrect            123297                       # Number of conditional branches incorrect
system.cpu.branchPred.BTBLookups              9469845                       # Number of BTB lookups
system.cpu.branchPred.BTBHits                 9468714                       # Number of BTB hits
system.cpu.branchPred.BTBHitPct             99.988057                       # BTB Hit Percentage
system.cpu.branchPred.RASUsed                 1001404                       # Number of times the RAS was used to get a target.
system.cpu.branchPred.RASIncorrect                299                       # Number of incorrect RAS predictions.
system.cpu.branchPred.indirectLookups          328169                       # Number of indirect predictor lookups.
system.cpu.branchPred.indirectHits             285510                       # Number of indirect target hits.
system.cpu.branchPred.indirectMisses            42659                       # Number of indirect misses.
system.cpu.branchPred.indirectMispredicted         1077                       # Number of mispredicted indirect branches.
system.cpu.fetch2.intInstructions            47316616                       # Number of integer instructions successfully decoded
system.cpu.fetch2.fpInstructions                    0                       # Number of floating point instructions successfully decoded
system.cpu.fetch2.vecInstructions                   0                       # Number of SIMD instructions successfully decoded
system.cpu.fetch2.loadInstructions           18439526                       # Number of memory load instructions successfully decoded
system.cpu.fetch2.storeInstructions           9797829                       # Number of memory store instructions successfully decoded
system.cpu.fetch2.amoInstructions                   0                       # Number of memory atomic instructions successfully decoded
system.cpu.itb.instHits                             0                       # ITB inst hits
system.cpu.itb.instMisses                           0                       # ITB inst misses
system.cpu.itb.readHits                             0                       # DTB read hits
system.cpu.itb.readMisses                           0                       # DTB read misses
system.cpu.itb.writeHits                            0                       # DTB write hits
system.cpu.itb.writeMisses                          0                       # DTB write misses
system.cpu.itb.inserts                              0                       # Number of times an entry is inserted into the TLB
system.cpu.itb.flushTlb                             0                       # Number of times complete TLB was flushed
system.cpu.itb.flushTlbMva                          0                       # Number of times TLB was flushed by MVA
system.cpu.itb.flushTlbMvaAsid                      0                       # Number of times TLB was flushed by MVA & ASID
system.cpu.itb.flushTlbAsid                         0                       # Number of times TLB was flushed by ASID
system.cpu.itb.flushedEntries                       0                       # Number of entries that have been flushed from TLB
system.cpu.itb.alignFaults                          0                       # Number of TLB faults due to alignment restrictions
system.cpu.itb.prefetchFaults                       0                       # Number of TLB faults due to prefetch
system.cpu.itb.domainFaults                         0                       # Number of TLB faults due to domain restrictions
system.cpu.itb.permsFaults                          0                       # Number of TLB faults due to permissions restrictions
system.cpu.itb.readAccesses                         0                       # DTB read accesses
system.cpu.itb.writeAccesses                        0                       # DTB write accesses
system.cpu.itb.instAccesses                         0                       # ITB inst accesses
system.cpu.itb.hits                                 0                       # Total TLB (inst and data) hits
system.cpu.itb.misses                               0                       # Total TLB (inst and data) misses
system.cpu.itb.accesses                             0                       # Total TLB (inst and data) accesses
system.cpu.itb.walker.walks                         0                       # Table walker walks requested
system.cpu.itb.walker.requestOrigin_Requested::Data            0                       # Table walker requests started/completed, data/inst
system.cpu.itb.walker.requestOrigin_Requested::Inst            0                       # Table walker requests started/completed, data/inst
system.cpu.itb.walker.requestOrigin_Requested::total            0                       # Table walker requests started/completed, data/inst
system.cpu.itb.walker.requestOrigin_Completed::Data            0                       # Table walker requests started/completed, data/inst
system.cpu.itb.walker.requestOrigin_Completed::Inst            0                       # Table walker requests started/completed, data/inst
system.cpu.itb.walker.requestOrigin_Completed::total            0                       # Table walker requests started/completed, data/inst
system.cpu.itb.walker.requestOrigin::total            0                       # Table walker requests started/completed, data/inst
system.cpu.itb.walker.power_state.pwrStateResidencyTicks::UNDEFINED  59055670000                       # Cumulative time (in ticks) in various power states
system.cpu.itb.stage2_mmu.stage2_tlb.instHits            0                       # ITB inst hits
system.cpu.itb.stage2_mmu.stage2_tlb.instMisses            0                       # ITB inst misses
system.cpu.itb.stage2_mmu.stage2_tlb.readHits            0                       # DTB read hits
system.cpu.itb.stage2_mmu.stage2_tlb.readMisses            0                       # DTB read misses
system.cpu.itb.stage2_mmu.stage2_tlb.writeHits            0                       # DTB write hits
system.cpu.itb.stage2_mmu.stage2_tlb.writeMisses            0                       # DTB write misses
system.cpu.itb.stage2_mmu.stage2_tlb.inserts            0                       # Number of times an entry is inserted into the TLB
system.cpu.itb.stage2_mmu.stage2_tlb.flushTlb            0                       # Number of times complete TLB was flushed
system.cpu.itb.stage2_mmu.stage2_tlb.flushTlbMva            0                       # Number of times TLB was flushed by MVA
system.cpu.itb.stage2_mmu.stage2_tlb.flushTlbMvaAsid            0                       # Number of times TLB was flushed by MVA & ASID
system.cpu.itb.stage2_mmu.stage2_tlb.flushTlbAsid            0                       # Number of times TLB was flushed by ASID
system.cpu.itb.stage2_mmu.stage2_tlb.flushedEntries            0                       # Number of entries that have been flushed from TLB
system.cpu.itb.stage2_mmu.stage2_tlb.alignFaults            0                       # Number of TLB faults due to alignment restrictions
system.cpu.itb.stage2_mmu.stage2_tlb.prefetchFaults            0                       # Number of TLB faults due to prefetch
system.cpu.itb.stage2_mmu.stage2_tlb.domainFaults            0                       # Number of TLB faults due to domain restrictions
system.cpu.itb.stage2_mmu.stage2_tlb.permsFaults            0                       # Number of TLB faults due to permissions restrictions
system.cpu.itb.stage2_mmu.stage2_tlb.readAccesses            0                       # DTB read accesses
system.cpu.itb.stage2_mmu.stage2_tlb.writeAccesses            0                       # DTB write accesses
system.cpu.itb.stage2_mmu.stage2_tlb.instAccesses            0                       # ITB inst accesses
system.cpu.itb.stage2_mmu.stage2_tlb.hits            0                       # Total TLB (inst and data) hits
system.cpu.itb.stage2_mmu.stage2_tlb.misses            0                       # Total TLB (inst and data) misses
system.cpu.itb.stage2_mmu.stage2_tlb.accesses            0                       # Total TLB (inst and data) accesses
system.cpu.itb.stage2_mmu.stage2_tlb.walker.walks            0                       # Table walker walks requested
system.cpu.itb.stage2_mmu.stage2_tlb.walker.requestOrigin_Requested::Data            0                       # Table walker requests started/completed, data/inst
system.cpu.itb.stage2_mmu.stage2_tlb.walker.requestOrigin_Requested::Inst            0                       # Table walker requests started/completed, data/inst
system.cpu.itb.stage2_mmu.stage2_tlb.walker.requestOrigin_Requested::total            0                       # Table walker requests started/completed, data/inst
system.cpu.itb.stage2_mmu.stage2_tlb.walker.requestOrigin_Completed::Data            0                       # Table walker requests started/completed, data/inst
system.cpu.itb.stage2_mmu.stage2_tlb.walker.requestOrigin_Completed::Inst            0                       # Table walker requests started/completed, data/inst
system.cpu.itb.stage2_mmu.stage2_tlb.walker.requestOrigin_Completed::total            0                       # Table walker requests started/completed, data/inst
system.cpu.itb.stage2_mmu.stage2_tlb.walker.requestOrigin::total            0                       # Table walker requests started/completed, data/inst
system.cpu.itb.stage2_mmu.stage2_tlb.walker.power_state.pwrStateResidencyTicks::UNDEFINED  59055670000                       # Cumulative time (in ticks) in various power states

---------- End Simulation Statistics   ----------
