
---------- Begin Simulation Statistics ----------
final_tick                                58877332000                       # Number of ticks from beginning of simulation (restored from checkpoints and never reset)
host_inst_rate                                 135124                       # Simulator instruction rate (inst/s)
host_mem_usage                                 724100                       # Number of bytes of host memory used
host_op_rate                                   146672                       # Simulator op (including micro ops) rate (op/s)
host_seconds                                   740.06                       # Real time elapsed on the host
host_tick_rate                               79557459                       # Simulator tick rate (ticks/s)
sim_freq                                 1000000000000                       # Frequency of simulated ticks
sim_insts                                   100000001                       # Number of instructions simulated
sim_ops                                     108545994                       # Number of ops (including micro ops) simulated
sim_seconds                                  0.058877                       # Number of seconds simulated
sim_ticks                                 58877332000                       # Number of ticks simulated
system.cpu.committedInsts                   100000001                       # Number of instructions committed
system.cpu.committedOps                     108545994                       # Number of ops (including micro ops) committed
system.cpu.cpi                               1.177547                       # CPI: cycles per instruction
system.cpu.discardedOps                        360865                       # Number of ops (including micro ops) which were discarded before commit
system.cpu.idleCycles                         5498783                       # Total number of cycles that the object has spent stopped
system.cpu.ipc                               0.849223                       # IPC: instructions per cycle
system.cpu.numCycles                        117754664                       # number of cpu cycles simulated
system.cpu.numFetchSuspends                         0                       # Number of times Execute suspended instruction fetching
system.cpu.numWorkItemsCompleted                    0                       # number of work items this cpu completed
system.cpu.numWorkItemsStarted                      0                       # number of work items this cpu started
system.cpu.op_class_0::No_OpClass                   0      0.00%      0.00% # Class of committed instruction
system.cpu.op_class_0::IntAlu                71947168     66.28%     66.28% # Class of committed instruction
system.cpu.op_class_0::IntMult                 542828      0.50%     66.78% # Class of committed instruction
system.cpu.op_class_0::IntDiv                       0      0.00%     66.78% # Class of committed instruction
system.cpu.op_class_0::FloatAdd                     0      0.00%     66.78% # Class of committed instruction
system.cpu.op_class_0::FloatCmp                     0      0.00%     66.78% # Class of committed instruction
system.cpu.op_class_0::FloatCvt                     0      0.00%     66.78% # Class of committed instruction
system.cpu.op_class_0::FloatMult                    0      0.00%     66.78% # Class of committed instruction
system.cpu.op_class_0::FloatMultAcc                 0      0.00%     66.78% # Class of committed instruction
system.cpu.op_class_0::FloatDiv                     0      0.00%     66.78% # Class of committed instruction
system.cpu.op_class_0::FloatMisc                    0      0.00%     66.78% # Class of committed instruction
system.cpu.op_class_0::FloatSqrt                    0      0.00%     66.78% # Class of committed instruction
system.cpu.op_class_0::SimdAdd                      0      0.00%     66.78% # Class of committed instruction
system.cpu.op_class_0::SimdAddAcc                   0      0.00%     66.78% # Class of committed instruction
system.cpu.op_class_0::SimdAlu                      0      0.00%     66.78% # Class of committed instruction
system.cpu.op_class_0::SimdCmp                      0      0.00%     66.78% # Class of committed instruction
system.cpu.op_class_0::SimdCvt                      0      0.00%     66.78% # Class of committed instruction
system.cpu.op_class_0::SimdMisc                     0      0.00%     66.78% # Class of committed instruction
system.cpu.op_class_0::SimdMult                     0      0.00%     66.78% # Class of committed instruction
system.cpu.op_class_0::SimdMultAcc                  0      0.00%     66.78% # Class of committed instruction
system.cpu.op_class_0::SimdShift                    0      0.00%     66.78% # Class of committed instruction
system.cpu.op_class_0::SimdShiftAcc                 0      0.00%     66.78% # Class of committed instruction
system.cpu.op_class_0::SimdDiv                      0      0.00%     66.78% # Class of committed instruction
system.cpu.op_class_0::SimdSqrt                     0      0.00%     66.78% # Class of committed instruction
system.cpu.op_class_0::SimdFloatAdd                 0      0.00%     66.78% # Class of committed instruction
system.cpu.op_class_0::SimdFloatAlu                 0      0.00%     66.78% # Class of committed instruction
system.cpu.op_class_0::SimdFloatCmp                 0      0.00%     66.78% # Class of committed instruction
system.cpu.op_class_0::SimdFloatCvt                 0      0.00%     66.78% # Class of committed instruction
system.cpu.op_class_0::SimdFloatDiv                 0      0.00%     66.78% # Class of committed instruction
system.cpu.op_class_0::SimdFloatMisc                0      0.00%     66.78% # Class of committed instruction
system.cpu.op_class_0::SimdFloatMult                0      0.00%     66.78% # Class of committed instruction
system.cpu.op_class_0::SimdFloatMultAcc             0      0.00%     66.78% # Class of committed instruction
system.cpu.op_class_0::SimdFloatSqrt                0      0.00%     66.78% # Class of committed instruction
system.cpu.op_class_0::SimdReduceAdd                0      0.00%     66.78% # Class of committed instruction
system.cpu.op_class_0::SimdReduceAlu                0      0.00%     66.78% # Class of committed instruction
system.cpu.op_class_0::SimdReduceCmp                0      0.00%     66.78% # Class of committed instruction
system.cpu.op_class_0::SimdFloatReduceAdd            0      0.00%     66.78% # Class of committed instruction
system.cpu.op_class_0::SimdFloatReduceCmp            0      0.00%     66.78% # Class of committed instruction
system.cpu.op_class_0::SimdAes                      0      0.00%     66.78% # Class of committed instruction
system.cpu.op_class_0::SimdAesMix                   0      0.00%     66.78% # Class of committed instruction
system.cpu.op_class_0::SimdSha1Hash                 0      0.00%     66.78% # Class of committed instruction
system.cpu.op_class_0::SimdSha1Hash2                0      0.00%     66.78% # Class of committed instruction
system.cpu.op_class_0::SimdSha256Hash               0      0.00%     66.78% # Class of committed instruction
system.cpu.op_class_0::SimdSha256Hash2              0      0.00%     66.78% # Class of committed instruction
system.cpu.op_class_0::SimdShaSigma2                0      0.00%     66.78% # Class of committed instruction
system.cpu.op_class_0::SimdShaSigma3                0      0.00%     66.78% # Class of committed instruction
system.cpu.op_class_0::SimdPredAlu                  0      0.00%     66.78% # Class of committed instruction
system.cpu.op_class_0::MemRead               21574996     19.88%     86.66% # Class of committed instruction
system.cpu.op_class_0::MemWrite              14481002     13.34%    100.00% # Class of committed instruction
system.cpu.op_class_0::FloatMemRead                 0      0.00%    100.00% # Class of committed instruction
system.cpu.op_class_0::FloatMemWrite                0      0.00%    100.00% # Class of committed instruction
system.cpu.op_class_0::IprAccess                    0      0.00%    100.00% # Class of committed instruction
system.cpu.op_class_0::InstPrefetch                 0      0.00%    100.00% # Class of committed instruction
system.cpu.op_class_0::total                108545994                       # Class of committed instruction
system.cpu.tickCycles                       112255881                       # Number of cycles that the object actually ticked
system.cpu.workload.numSyscalls                    84                       # Number of system calls
system.membus.snoop_filter.hit_multi_requests            0                       # Number of requests hitting in the snoop filter with multiple (>1) holders of the requested data.
system.membus.snoop_filter.hit_multi_snoops            0                       # Number of snoops hitting in the snoop filter with multiple (>1) holders of the requested data.
system.membus.snoop_filter.hit_single_requests         5444                       # Number of requests hitting in the snoop filter with a single holder of the requested data.
system.membus.snoop_filter.hit_single_snoops            0                       # Number of snoops hitting in the snoop filter with a single holder of the requested data.
system.membus.snoop_filter.tot_requests         44047                       # Total number of requests made to the snoop filter.
system.membus.snoop_filter.tot_snoops               0                       # Total number of snoops made to the snoop filter.
system.tol2bus.snoop_filter.hit_multi_requests          108                       # Number of requests hitting in the snoop filter with multiple (>1) holders of the requested data.
system.tol2bus.snoop_filter.hit_multi_snoops            0                       # Number of snoops hitting in the snoop filter with multiple (>1) holders of the requested data.
system.tol2bus.snoop_filter.hit_single_requests       189424                       # Number of requests hitting in the snoop filter with a single holder of the requested data.
system.tol2bus.snoop_filter.hit_single_snoops          394                       # Number of snoops hitting in the snoop filter with a single holder of the requested data.
system.tol2bus.snoop_filter.tot_requests       379751                       # Total number of requests made to the snoop filter.
system.tol2bus.snoop_filter.tot_snoops            394                       # Total number of snoops made to the snoop filter.
system.membus.trans_dist::ReadResp                843                       # Transaction distribution
system.membus.trans_dist::WritebackDirty         5298                       # Transaction distribution
system.membus.trans_dist::CleanEvict              146                       # Transaction distribution
system.membus.trans_dist::ReadExReq             37760                       # Transaction distribution
system.membus.trans_dist::ReadExResp            37760                       # Transaction distribution
system.membus.trans_dist::ReadSharedReq           843                       # Transaction distribution
system.membus.pkt_count_system.l2.mem_side_port::system.mem_ctrls.port        82650                       # Packet count per connected requestor and responder (bytes)
system.membus.pkt_count::total                  82650                       # Packet count per connected requestor and responder (bytes)
system.membus.pkt_size_system.l2.mem_side_port::system.mem_ctrls.port      2809664                       # Cumulative packet size per connected requestor and responder (bytes)
system.membus.pkt_size::total                 2809664                       # Cumulative packet size per connected requestor and responder (bytes)
system.membus.snoops                                0                       # Total snoops (count)
system.membus.snoopTraffic                          0                       # Total snoop traffic (bytes)
system.membus.snoop_fanout::samples             38603                       # Request fanout histogram
system.membus.snoop_fanout::mean                    0                       # Request fanout histogram
system.membus.snoop_fanout::stdev                   0                       # Request fanout histogram
system.membus.snoop_fanout::underflows              0      0.00%      0.00% # Request fanout histogram
system.membus.snoop_fanout::0                   38603    100.00%    100.00% # Request fanout histogram
system.membus.snoop_fanout::1                       0      0.00%    100.00% # Request fanout histogram
system.membus.snoop_fanout::overflows               0      0.00%    100.00% # Request fanout histogram
system.membus.snoop_fanout::min_value               0                       # Request fanout histogram
system.membus.snoop_fanout::max_value               0                       # Request fanout histogram
system.membus.snoop_fanout::total               38603                       # Request fanout histogram
system.membus.reqLayer0.occupancy            73409000                       # Layer occupancy (ticks)
system.membus.reqLayer0.utilization               0.1                       # Layer utilization (%)
system.membus.respLayer1.occupancy          205008000                       # Layer occupancy (ticks)
system.membus.respLayer1.utilization              0.3                       # Layer utilization (%)
system.membus.power_state.pwrStateResidencyTicks::UNDEFINED  58877332000                       # Cumulative time (in ticks) in various power states
system.tol2bus.trans_dist::ReadResp            152533                       # Transaction distribution
system.tol2bus.trans_dist::WritebackDirty        57011                       # Transaction distribution
system.tol2bus.trans_dist::WritebackClean       131363                       # Transaction distribution
system.tol2bus.trans_dist::CleanEvict            6881                       # Transaction distribution
system.tol2bus.trans_dist::ReadExReq            37800                       # Transaction distribution
system.tol2bus.trans_dist::ReadExResp           37800                       # Transaction distribution
system.tol2bus.trans_dist::ReadCleanReq        131766                       # Transaction distribution
system.tol2bus.trans_dist::ReadSharedReq        20767                       # Transaction distribution
system.tol2bus.pkt_count_system.cpu.icache.mem_side_port::system.l2.cpu_side_port       394895                       # Packet count per connected requestor and responder (bytes)
system.tol2bus.pkt_count_system.cpu.dcache.mem_side_port::system.l2.cpu_side_port       175189                       # Packet count per connected requestor and responder (bytes)
system.tol2bus.pkt_count::total                570084                       # Packet count per connected requestor and responder (bytes)
system.tol2bus.pkt_size_system.cpu.icache.mem_side_port::system.l2.cpu_side_port     16840256                       # Cumulative packet size per connected requestor and responder (bytes)
system.tol2bus.pkt_size_system.cpu.dcache.mem_side_port::system.l2.cpu_side_port      7057920                       # Cumulative packet size per connected requestor and responder (bytes)
system.tol2bus.pkt_size::total               23898176                       # Cumulative packet size per connected requestor and responder (bytes)
system.tol2bus.snoops                            5837                       # Total snoops (count)
system.tol2bus.snoopTraffic                    339072                       # Total snoop traffic (bytes)
system.tol2bus.snoop_fanout::samples           196170                       # Request fanout histogram
system.tol2bus.snoop_fanout::mean            0.002590                       # Request fanout histogram
system.tol2bus.snoop_fanout::stdev           0.050822                       # Request fanout histogram
system.tol2bus.snoop_fanout::underflows             0      0.00%      0.00% # Request fanout histogram
system.tol2bus.snoop_fanout::0                 195662     99.74%     99.74% # Request fanout histogram
system.tol2bus.snoop_fanout::1                    508      0.26%    100.00% # Request fanout histogram
system.tol2bus.snoop_fanout::2                      0      0.00%    100.00% # Request fanout histogram
system.tol2bus.snoop_fanout::overflows              0      0.00%    100.00% # Request fanout histogram
system.tol2bus.snoop_fanout::min_value              0                       # Request fanout histogram
system.tol2bus.snoop_fanout::max_value              1                       # Request fanout histogram
system.tol2bus.snoop_fanout::total             196170                       # Request fanout histogram
system.tol2bus.reqLayer0.occupancy          372951500                       # Layer occupancy (ticks)
system.tol2bus.reqLayer0.utilization              0.6                       # Layer utilization (%)
system.tol2bus.respLayer1.occupancy          87853494                       # Layer occupancy (ticks)
system.tol2bus.respLayer1.utilization             0.1                       # Layer utilization (%)
system.tol2bus.respLayer0.occupancy         197649000                       # Layer occupancy (ticks)
system.tol2bus.respLayer0.utilization             0.3                       # Layer utilization (%)
system.tol2bus.power_state.pwrStateResidencyTicks::UNDEFINED  58877332000                       # Cumulative time (in ticks) in various power states
system.voltage_domain.voltage                       1                       # Voltage in Volts
system.clk_domain.clock                          1000                       # Clock period in ticks
system.l2.demand_hits::.cpu.inst               131252                       # number of demand (read+write) hits
system.l2.demand_hits::.cpu.data                20472                       # number of demand (read+write) hits
system.l2.demand_hits::total                   151724                       # number of demand (read+write) hits
system.l2.overall_hits::.cpu.inst              131252                       # number of overall hits
system.l2.overall_hits::.cpu.data               20472                       # number of overall hits
system.l2.overall_hits::total                  151724                       # number of overall hits
system.l2.demand_misses::.cpu.inst                514                       # number of demand (read+write) misses
system.l2.demand_misses::.cpu.data              38095                       # number of demand (read+write) misses
system.l2.demand_misses::total                  38609                       # number of demand (read+write) misses
system.l2.overall_misses::.cpu.inst               514                       # number of overall misses
system.l2.overall_misses::.cpu.data             38095                       # number of overall misses
system.l2.overall_misses::total                 38609                       # number of overall misses
system.l2.demand_miss_latency::.cpu.inst     38656000                       # number of demand (read+write) miss cycles
system.l2.demand_miss_latency::.cpu.data   2880574500                       # number of demand (read+write) miss cycles
system.l2.demand_miss_latency::total       2919230500                       # number of demand (read+write) miss cycles
system.l2.overall_miss_latency::.cpu.inst     38656000                       # number of overall miss cycles
system.l2.overall_miss_latency::.cpu.data   2880574500                       # number of overall miss cycles
system.l2.overall_miss_latency::total      2919230500                       # number of overall miss cycles
system.l2.demand_accesses::.cpu.inst           131766                       # number of demand (read+write) accesses
system.l2.demand_accesses::.cpu.data            58567                       # number of demand (read+write) accesses
system.l2.demand_accesses::total               190333                       # number of demand (read+write) accesses
system.l2.overall_accesses::.cpu.inst          131766                       # number of overall (read+write) accesses
system.l2.overall_accesses::.cpu.data           58567                       # number of overall (read+write) accesses
system.l2.overall_accesses::total              190333                       # number of overall (read+write) accesses
system.l2.demand_miss_rate::.cpu.inst        0.003901                       # miss rate for demand accesses
system.l2.demand_miss_rate::.cpu.data        0.650452                       # miss rate for demand accesses
system.l2.demand_miss_rate::total            0.202850                       # miss rate for demand accesses
system.l2.overall_miss_rate::.cpu.inst       0.003901                       # miss rate for overall accesses
system.l2.overall_miss_rate::.cpu.data       0.650452                       # miss rate for overall accesses
system.l2.overall_miss_rate::total           0.202850                       # miss rate for overall accesses
system.l2.demand_avg_miss_latency::.cpu.inst 75206.225681                       # average overall miss latency
system.l2.demand_avg_miss_latency::.cpu.data 75615.553222                       # average overall miss latency
system.l2.demand_avg_miss_latency::total 75610.103862                       # average overall miss latency
system.l2.overall_avg_miss_latency::.cpu.inst 75206.225681                       # average overall miss latency
system.l2.overall_avg_miss_latency::.cpu.data 75615.553222                       # average overall miss latency
system.l2.overall_avg_miss_latency::total 75610.103862                       # average overall miss latency
system.l2.blocked_cycles::no_mshrs                  0                       # number of cycles access was blocked
system.l2.blocked_cycles::no_targets                0                       # number of cycles access was blocked
system.l2.blocked::no_mshrs                         0                       # number of cycles access was blocked
system.l2.blocked::no_targets                       0                       # number of cycles access was blocked
system.l2.avg_blocked_cycles::no_mshrs            nan                       # average number of cycles each access was blocked
system.l2.avg_blocked_cycles::no_targets          nan                       # average number of cycles each access was blocked
system.l2.writebacks::.writebacks                5298                       # number of writebacks
system.l2.writebacks::total                      5298                       # number of writebacks
system.l2.demand_mshr_hits::.cpu.data               6                       # number of demand (read+write) MSHR hits
system.l2.demand_mshr_hits::total                   6                       # number of demand (read+write) MSHR hits
system.l2.overall_mshr_hits::.cpu.data              6                       # number of overall MSHR hits
system.l2.overall_mshr_hits::total                  6                       # number of overall MSHR hits
system.l2.demand_mshr_misses::.cpu.inst           514                       # number of demand (read+write) MSHR misses
system.l2.demand_mshr_misses::.cpu.data         38089                       # number of demand (read+write) MSHR misses
system.l2.demand_mshr_misses::total             38603                       # number of demand (read+write) MSHR misses
system.l2.overall_mshr_misses::.cpu.inst          514                       # number of overall MSHR misses
system.l2.overall_mshr_misses::.cpu.data        38089                       # number of overall MSHR misses
system.l2.overall_mshr_misses::total            38603                       # number of overall MSHR misses
system.l2.demand_mshr_miss_latency::.cpu.inst     33516000                       # number of demand (read+write) MSHR miss cycles
system.l2.demand_mshr_miss_latency::.cpu.data   2499281000                       # number of demand (read+write) MSHR miss cycles
system.l2.demand_mshr_miss_latency::total   2532797000                       # number of demand (read+write) MSHR miss cycles
system.l2.overall_mshr_miss_latency::.cpu.inst     33516000                       # number of overall MSHR miss cycles
system.l2.overall_mshr_miss_latency::.cpu.data   2499281000                       # number of overall MSHR miss cycles
system.l2.overall_mshr_miss_latency::total   2532797000                       # number of overall MSHR miss cycles
system.l2.demand_mshr_miss_rate::.cpu.inst     0.003901                       # mshr miss rate for demand accesses
system.l2.demand_mshr_miss_rate::.cpu.data     0.650349                       # mshr miss rate for demand accesses
system.l2.demand_mshr_miss_rate::total       0.202818                       # mshr miss rate for demand accesses
system.l2.overall_mshr_miss_rate::.cpu.inst     0.003901                       # mshr miss rate for overall accesses
system.l2.overall_mshr_miss_rate::.cpu.data     0.650349                       # mshr miss rate for overall accesses
system.l2.overall_mshr_miss_rate::total      0.202818                       # mshr miss rate for overall accesses
system.l2.demand_avg_mshr_miss_latency::.cpu.inst 65206.225681                       # average overall mshr miss latency
system.l2.demand_avg_mshr_miss_latency::.cpu.data 65616.871013                       # average overall mshr miss latency
system.l2.demand_avg_mshr_miss_latency::total 65611.403259                       # average overall mshr miss latency
system.l2.overall_avg_mshr_miss_latency::.cpu.inst 65206.225681                       # average overall mshr miss latency
system.l2.overall_avg_mshr_miss_latency::.cpu.data 65616.871013                       # average overall mshr miss latency
system.l2.overall_avg_mshr_miss_latency::total 65611.403259                       # average overall mshr miss latency
system.l2.replacements                           5837                       # number of replacements
system.l2.WritebackDirty_hits::.writebacks        51713                       # number of WritebackDirty hits
system.l2.WritebackDirty_hits::total            51713                       # number of WritebackDirty hits
system.l2.WritebackDirty_accesses::.writebacks        51713                       # number of WritebackDirty accesses(hits+misses)
system.l2.WritebackDirty_accesses::total        51713                       # number of WritebackDirty accesses(hits+misses)
system.l2.WritebackClean_hits::.writebacks       131359                       # number of WritebackClean hits
system.l2.WritebackClean_hits::total           131359                       # number of WritebackClean hits
system.l2.WritebackClean_accesses::.writebacks       131359                       # number of WritebackClean accesses(hits+misses)
system.l2.WritebackClean_accesses::total       131359                       # number of WritebackClean accesses(hits+misses)
system.l2.CleanEvict_mshr_misses::.writebacks            1                       # number of CleanEvict MSHR misses
system.l2.CleanEvict_mshr_misses::total             1                       # number of CleanEvict MSHR misses
system.l2.CleanEvict_mshr_miss_rate::.writebacks          inf                       # mshr miss rate for CleanEvict accesses
system.l2.CleanEvict_mshr_miss_rate::total          inf                       # mshr miss rate for CleanEvict accesses
system.l2.ReadExReq_hits::.cpu.data                40                       # number of ReadExReq hits
system.l2.ReadExReq_hits::total                    40                       # number of ReadExReq hits
system.l2.ReadExReq_misses::.cpu.data           37760                       # number of ReadExReq misses
system.l2.ReadExReq_misses::total               37760                       # number of ReadExReq misses
system.l2.ReadExReq_miss_latency::.cpu.data   2850893000                       # number of ReadExReq miss cycles
system.l2.ReadExReq_miss_latency::total    2850893000                       # number of ReadExReq miss cycles
system.l2.ReadExReq_accesses::.cpu.data         37800                       # number of ReadExReq accesses(hits+misses)
system.l2.ReadExReq_accesses::total             37800                       # number of ReadExReq accesses(hits+misses)
system.l2.ReadExReq_miss_rate::.cpu.data     0.998942                       # miss rate for ReadExReq accesses
system.l2.ReadExReq_miss_rate::total         0.998942                       # miss rate for ReadExReq accesses
system.l2.ReadExReq_avg_miss_latency::.cpu.data 75500.344280                       # average ReadExReq miss latency
system.l2.ReadExReq_avg_miss_latency::total 75500.344280                       # average ReadExReq miss latency
system.l2.ReadExReq_mshr_misses::.cpu.data        37760                       # number of ReadExReq MSHR misses
system.l2.ReadExReq_mshr_misses::total          37760                       # number of ReadExReq MSHR misses
system.l2.ReadExReq_mshr_miss_latency::.cpu.data   2473293000                       # number of ReadExReq MSHR miss cycles
system.l2.ReadExReq_mshr_miss_latency::total   2473293000                       # number of ReadExReq MSHR miss cycles
system.l2.ReadExReq_mshr_miss_rate::.cpu.data     0.998942                       # mshr miss rate for ReadExReq accesses
system.l2.ReadExReq_mshr_miss_rate::total     0.998942                       # mshr miss rate for ReadExReq accesses
system.l2.ReadExReq_avg_mshr_miss_latency::.cpu.data 65500.344280                       # average ReadExReq mshr miss latency
system.l2.ReadExReq_avg_mshr_miss_latency::total 65500.344280                       # average ReadExReq mshr miss latency
system.l2.ReadCleanReq_hits::.cpu.inst         131252                       # number of ReadCleanReq hits
system.l2.ReadCleanReq_hits::total             131252                       # number of ReadCleanReq hits
system.l2.ReadCleanReq_misses::.cpu.inst          514                       # number of ReadCleanReq misses
system.l2.ReadCleanReq_misses::total              514                       # number of ReadCleanReq misses
system.l2.ReadCleanReq_miss_latency::.cpu.inst     38656000                       # number of ReadCleanReq miss cycles
system.l2.ReadCleanReq_miss_latency::total     38656000                       # number of ReadCleanReq miss cycles
system.l2.ReadCleanReq_accesses::.cpu.inst       131766                       # number of ReadCleanReq accesses(hits+misses)
system.l2.ReadCleanReq_accesses::total         131766                       # number of ReadCleanReq accesses(hits+misses)
system.l2.ReadCleanReq_miss_rate::.cpu.inst     0.003901                       # miss rate for ReadCleanReq accesses
system.l2.ReadCleanReq_miss_rate::total      0.003901                       # miss rate for ReadCleanReq accesses
system.l2.ReadCleanReq_avg_miss_latency::.cpu.inst 75206.225681                       # average ReadCleanReq miss latency
system.l2.ReadCleanReq_avg_miss_latency::total 75206.225681                       # average ReadCleanReq miss latency
system.l2.ReadCleanReq_mshr_misses::.cpu.inst          514                       # number of ReadCleanReq MSHR misses
system.l2.ReadCleanReq_mshr_misses::total          514                       # number of ReadCleanReq MSHR misses
system.l2.ReadCleanReq_mshr_miss_latency::.cpu.inst     33516000                       # number of ReadCleanReq MSHR miss cycles
system.l2.ReadCleanReq_mshr_miss_latency::total     33516000                       # number of ReadCleanReq MSHR miss cycles
system.l2.ReadCleanReq_mshr_miss_rate::.cpu.inst     0.003901                       # mshr miss rate for ReadCleanReq accesses
system.l2.ReadCleanReq_mshr_miss_rate::total     0.003901                       # mshr miss rate for ReadCleanReq accesses
system.l2.ReadCleanReq_avg_mshr_miss_latency::.cpu.inst 65206.225681                       # average ReadCleanReq mshr miss latency
system.l2.ReadCleanReq_avg_mshr_miss_latency::total 65206.225681                       # average ReadCleanReq mshr miss latency
system.l2.ReadSharedReq_hits::.cpu.data         20432                       # number of ReadSharedReq hits
system.l2.ReadSharedReq_hits::total             20432                       # number of ReadSharedReq hits
system.l2.ReadSharedReq_misses::.cpu.data          335                       # number of ReadSharedReq misses
system.l2.ReadSharedReq_misses::total             335                       # number of ReadSharedReq misses
system.l2.ReadSharedReq_miss_latency::.cpu.data     29681500                       # number of ReadSharedReq miss cycles
system.l2.ReadSharedReq_miss_latency::total     29681500                       # number of ReadSharedReq miss cycles
system.l2.ReadSharedReq_accesses::.cpu.data        20767                       # number of ReadSharedReq accesses(hits+misses)
system.l2.ReadSharedReq_accesses::total         20767                       # number of ReadSharedReq accesses(hits+misses)
system.l2.ReadSharedReq_miss_rate::.cpu.data     0.016131                       # miss rate for ReadSharedReq accesses
system.l2.ReadSharedReq_miss_rate::total     0.016131                       # miss rate for ReadSharedReq accesses
system.l2.ReadSharedReq_avg_miss_latency::.cpu.data 88601.492537                       # average ReadSharedReq miss latency
system.l2.ReadSharedReq_avg_miss_latency::total 88601.492537                       # average ReadSharedReq miss latency
system.l2.ReadSharedReq_mshr_hits::.cpu.data            6                       # number of ReadSharedReq MSHR hits
system.l2.ReadSharedReq_mshr_hits::total            6                       # number of ReadSharedReq MSHR hits
system.l2.ReadSharedReq_mshr_misses::.cpu.data          329                       # number of ReadSharedReq MSHR misses
system.l2.ReadSharedReq_mshr_misses::total          329                       # number of ReadSharedReq MSHR misses
system.l2.ReadSharedReq_mshr_miss_latency::.cpu.data     25988000                       # number of ReadSharedReq MSHR miss cycles
system.l2.ReadSharedReq_mshr_miss_latency::total     25988000                       # number of ReadSharedReq MSHR miss cycles
system.l2.ReadSharedReq_mshr_miss_rate::.cpu.data     0.015842                       # mshr miss rate for ReadSharedReq accesses
system.l2.ReadSharedReq_mshr_miss_rate::total     0.015842                       # mshr miss rate for ReadSharedReq accesses
system.l2.ReadSharedReq_avg_mshr_miss_latency::.cpu.data 78990.881459                       # average ReadSharedReq mshr miss latency
system.l2.ReadSharedReq_avg_mshr_miss_latency::total 78990.881459                       # average ReadSharedReq mshr miss latency
system.l2.power_state.pwrStateResidencyTicks::UNDEFINED  58877332000                       # Cumulative time (in ticks) in various power states
system.l2.tags.tagsinuse                 25985.676399                       # Cycle average of tags in use
system.l2.tags.total_refs                      379636                       # Total number of references to valid blocks.
system.l2.tags.sampled_refs                     38605                       # Sample count of references to valid blocks.
system.l2.tags.avg_refs                      9.833856                       # Average number of references to valid blocks.
system.l2.tags.warmup_cycle                     77000                       # Cycle when the warmup percentage was hit.
system.l2.tags.occ_blocks::.writebacks       0.339597                       # Average occupied blocks per requestor
system.l2.tags.occ_blocks::.cpu.inst       345.868421                       # Average occupied blocks per requestor
system.l2.tags.occ_blocks::.cpu.data     25639.468381                       # Average occupied blocks per requestor
system.l2.tags.occ_percent::.writebacks      0.000010                       # Average percentage of cache occupancy
system.l2.tags.occ_percent::.cpu.inst        0.010555                       # Average percentage of cache occupancy
system.l2.tags.occ_percent::.cpu.data        0.782454                       # Average percentage of cache occupancy
system.l2.tags.occ_percent::total            0.793020                       # Average percentage of cache occupancy
system.l2.tags.occ_task_id_blocks::1024         32768                       # Occupied blocks per task id
system.l2.tags.age_task_id_blocks_1024::0            3                       # Occupied blocks per task id
system.l2.tags.age_task_id_blocks_1024::1           34                       # Occupied blocks per task id
system.l2.tags.age_task_id_blocks_1024::2          352                       # Occupied blocks per task id
system.l2.tags.age_task_id_blocks_1024::3         3313                       # Occupied blocks per task id
system.l2.tags.age_task_id_blocks_1024::4        29066                       # Occupied blocks per task id
system.l2.tags.occ_task_id_percent::1024            1                       # Percentage of cache occupancy per task id
system.l2.tags.tag_accesses                   3075749                       # Number of tag accesses
system.l2.tags.data_accesses                  3075749                       # Number of data accesses
system.l2.tags.power_state.pwrStateResidencyTicks::UNDEFINED  58877332000                       # Cumulative time (in ticks) in various power states
system.cpu_voltage_domain.voltage                   1                       # Voltage in Volts
system.mem_ctrls.avgPriority_.writebacks::samples      5298.00                       # Average QoS priority value for accepted requests
system.mem_ctrls.avgPriority_.cpu.inst::samples       514.00                       # Average QoS priority value for accepted requests
system.mem_ctrls.avgPriority_.cpu.data::samples     38089.00                       # Average QoS priority value for accepted requests
system.mem_ctrls.priorityMinLatency      0.000000018750                       # per QoS priority minimum request to response latency (s)
system.mem_ctrls.priorityMaxLatency      0.018687726500                       # per QoS priority maximum request to response latency (s)
system.mem_ctrls.numReadWriteTurnArounds          293                       # Number of turnarounds from READ to WRITE
system.mem_ctrls.numWriteReadTurnArounds          293                       # Number of turnarounds from WRITE to READ
system.mem_ctrls.numStayReadState               97604                       # Number of times bus staying in READ state
system.mem_ctrls.numStayWriteState               4996                       # Number of times bus staying in WRITE state
system.mem_ctrls.readReqs                       38603                       # Number of read requests accepted
system.mem_ctrls.writeReqs                       5298                       # Number of write requests accepted
system.mem_ctrls.readBursts                     38603                       # Number of controller read bursts, including those serviced by the write queue
system.mem_ctrls.writeBursts                     5298                       # Number of controller write bursts, including those merged in the write queue
system.mem_ctrls.servicedByWrQ                      0                       # Number of controller read bursts serviced by the write queue
system.mem_ctrls.mergedWrBursts                     0                       # Number of controller write bursts merged with an existing one
system.mem_ctrls.neitherReadNorWriteReqs            0                       # Number of requests that are neither read nor write
system.mem_ctrls.avgRdQLen                       1.00                       # Average read queue length when enqueuing
system.mem_ctrls.avgWrQLen                       8.78                       # Average write queue length when enqueuing
system.mem_ctrls.numRdRetry                         0                       # Number of times read queue was full causing retry
system.mem_ctrls.numWrRetry                         0                       # Number of times write queue was full causing retry
system.mem_ctrls.readPktSize::0                     0                       # Read request sizes (log2)
system.mem_ctrls.readPktSize::1                     0                       # Read request sizes (log2)
system.mem_ctrls.readPktSize::2                     0                       # Read request sizes (log2)
system.mem_ctrls.readPktSize::3                     0                       # Read request sizes (log2)
system.mem_ctrls.readPktSize::4                     0                       # Read request sizes (log2)
system.mem_ctrls.readPktSize::5                     0                       # Read request sizes (log2)
system.mem_ctrls.readPktSize::6                 38603                       # Read request sizes (log2)
system.mem_ctrls.writePktSize::0                    0                       # Write request sizes (log2)
system.mem_ctrls.writePktSize::1                    0                       # Write request sizes (log2)
system.mem_ctrls.writePktSize::2                    0                       # Write request sizes (log2)
system.mem_ctrls.writePktSize::3                    0                       # Write request sizes (log2)
system.mem_ctrls.writePktSize::4                    0                       # Write request sizes (log2)
system.mem_ctrls.writePktSize::5                    0                       # Write request sizes (log2)
system.mem_ctrls.writePktSize::6                 5298                       # Write request sizes (log2)
system.mem_ctrls.rdQLenPdf::0                   38468                       # What read queue length does an incoming req see
system.mem_ctrls.rdQLenPdf::1                     124                       # What read queue length does an incoming req see
system.mem_ctrls.rdQLenPdf::2                      11                       # What read queue length does an incoming req see
system.mem_ctrls.rdQLenPdf::3                       0                       # What read queue length does an incoming req see
system.mem_ctrls.rdQLenPdf::4                       0                       # What read queue length does an incoming req see
system.mem_ctrls.rdQLenPdf::5                       0                       # What read queue length does an incoming req see
system.mem_ctrls.rdQLenPdf::6                       0                       # What read queue length does an incoming req see
system.mem_ctrls.rdQLenPdf::7                       0                       # What read queue length does an incoming req see
system.mem_ctrls.rdQLenPdf::8                       0                       # What read queue length does an incoming req see
system.mem_ctrls.rdQLenPdf::9                       0                       # What read queue length does an incoming req see
system.mem_ctrls.rdQLenPdf::10                      0                       # What read queue length does an incoming req see
system.mem_ctrls.rdQLenPdf::11                      0                       # What read queue length does an incoming req see
system.mem_ctrls.rdQLenPdf::12                      0                       # What read queue length does an incoming req see
system.mem_ctrls.rdQLenPdf::13                      0                       # What read queue length does an incoming req see
system.mem_ctrls.rdQLenPdf::14                      0                       # What read queue length does an incoming req see
system.mem_ctrls.rdQLenPdf::15                      0                       # What read queue length does an incoming req see
system.mem_ctrls.rdQLenPdf::16                      0                       # What read queue length does an incoming req see
system.mem_ctrls.rdQLenPdf::17                      0                       # What read queue length does an incoming req see
system.mem_ctrls.rdQLenPdf::18                      0                       # What read queue length does an incoming req see
system.mem_ctrls.rdQLenPdf::19                      0                       # What read queue length does an incoming req see
system.mem_ctrls.rdQLenPdf::20                      0                       # What read queue length does an incoming req see
system.mem_ctrls.rdQLenPdf::21                      0                       # What read queue length does an incoming req see
system.mem_ctrls.rdQLenPdf::22                      0                       # What read queue length does an incoming req see
system.mem_ctrls.rdQLenPdf::23                      0                       # What read queue length does an incoming req see
system.mem_ctrls.rdQLenPdf::24                      0                       # What read queue length does an incoming req see
system.mem_ctrls.rdQLenPdf::25                      0                       # What read queue length does an incoming req see
system.mem_ctrls.rdQLenPdf::26                      0                       # What read queue length does an incoming req see
system.mem_ctrls.rdQLenPdf::27                      0                       # What read queue length does an incoming req see
system.mem_ctrls.rdQLenPdf::28                      0                       # What read queue length does an incoming req see
system.mem_ctrls.rdQLenPdf::29                      0                       # What read queue length does an incoming req see
system.mem_ctrls.rdQLenPdf::30                      0                       # What read queue length does an incoming req see
system.mem_ctrls.rdQLenPdf::31                      0                       # What read queue length does an incoming req see
system.mem_ctrls.wrQLenPdf::0                       1                       # What write queue length does an incoming req see
system.mem_ctrls.wrQLenPdf::1                       1                       # What write queue length does an incoming req see
system.mem_ctrls.wrQLenPdf::2                       1                       # What write queue length does an incoming req see
system.mem_ctrls.wrQLenPdf::3                       1                       # What write queue length does an incoming req see
system.mem_ctrls.wrQLenPdf::4                       1                       # What write queue length does an incoming req see
system.mem_ctrls.wrQLenPdf::5                       1                       # What write queue length does an incoming req see
system.mem_ctrls.wrQLenPdf::6                       1                       # What write queue length does an incoming req see
system.mem_ctrls.wrQLenPdf::7                       1                       # What write queue length does an incoming req see
system.mem_ctrls.wrQLenPdf::8                       1                       # What write queue length does an incoming req see
system.mem_ctrls.wrQLenPdf::9                       1                       # What write queue length does an incoming req see
system.mem_ctrls.wrQLenPdf::10                      1                       # What write queue length does an incoming req see
system.mem_ctrls.wrQLenPdf::11                      1                       # What write queue length does an incoming req see
system.mem_ctrls.wrQLenPdf::12                      1                       # What write queue length does an incoming req see
system.mem_ctrls.wrQLenPdf::13                      1                       # What write queue length does an incoming req see
system.mem_ctrls.wrQLenPdf::14                      1                       # What write queue length does an incoming req see
system.mem_ctrls.wrQLenPdf::15                    294                       # What write queue length does an incoming req see
system.mem_ctrls.wrQLenPdf::16                    294                       # What write queue length does an incoming req see
system.mem_ctrls.wrQLenPdf::17                    294                       # What write queue length does an incoming req see
system.mem_ctrls.wrQLenPdf::18                    294                       # What write queue length does an incoming req see
system.mem_ctrls.wrQLenPdf::19                    293                       # What write queue length does an incoming req see
system.mem_ctrls.wrQLenPdf::20                    293                       # What write queue length does an incoming req see
system.mem_ctrls.wrQLenPdf::21                    293                       # What write queue length does an incoming req see
system.mem_ctrls.wrQLenPdf::22                    293                       # What write queue length does an incoming req see
system.mem_ctrls.wrQLenPdf::23                    294                       # What write queue length does an incoming req see
system.mem_ctrls.wrQLenPdf::24                    293                       # What write queue length does an incoming req see
system.mem_ctrls.wrQLenPdf::25                    293                       # What write queue length does an incoming req see
system.mem_ctrls.wrQLenPdf::26                    295                       # What write queue length does an incoming req see
system.mem_ctrls.wrQLenPdf::27                    295                       # What write queue length does an incoming req see
system.mem_ctrls.wrQLenPdf::28                    293                       # What write queue length does an incoming req see
system.mem_ctrls.wrQLenPdf::29                    293                       # What write queue length does an incoming req see
system.mem_ctrls.wrQLenPdf::30                    293                       # What write queue length does an incoming req see
system.mem_ctrls.wrQLenPdf::31                    293                       # What write queue length does an incoming req see
system.mem_ctrls.wrQLenPdf::32                    293                       # What write queue length does an incoming req see
system.mem_ctrls.wrQLenPdf::33                      0                       # What write queue length does an incoming req see
system.mem_ctrls.wrQLenPdf::34                      0                       # What write queue length does an incoming req see
system.mem_ctrls.wrQLenPdf::35                      0                       # What write queue length does an incoming req see
system.mem_ctrls.wrQLenPdf::36                      0                       # What write queue length does an incoming req see
system.mem_ctrls.wrQLenPdf::37                      0                       # What write queue length does an incoming req see
system.mem_ctrls.wrQLenPdf::38                      0                       # What write queue length does an incoming req see
system.mem_ctrls.wrQLenPdf::39                      0                       # What write queue length does an incoming req see
system.mem_ctrls.wrQLenPdf::40                      0                       # What write queue length does an incoming req see
system.mem_ctrls.wrQLenPdf::41                      0                       # What write queue length does an incoming req see
system.mem_ctrls.wrQLenPdf::42                      0                       # What write queue length does an incoming req see
system.mem_ctrls.wrQLenPdf::43                      0                       # What write queue length does an incoming req see
system.mem_ctrls.wrQLenPdf::44                      0                       # What write queue length does an incoming req see
system.mem_ctrls.wrQLenPdf::45                      0                       # What write queue length does an incoming req see
system.mem_ctrls.wrQLenPdf::46                      0                       # What write queue length does an incoming req see
system.mem_ctrls.wrQLenPdf::47                      0                       # What write queue length does an incoming req see
system.mem_ctrls.wrQLenPdf::48                      0                       # What write queue length does an incoming req see
system.mem_ctrls.wrQLenPdf::49                      0                       # What write queue length does an incoming req see
system.mem_ctrls.wrQLenPdf::50                      0                       # What write queue length does an incoming req see
system.mem_ctrls.wrQLenPdf::51                      0                       # What write queue length does an incoming req see
system.mem_ctrls.wrQLenPdf::52                      0                       # What write queue length does an incoming req see
system.mem_ctrls.wrQLenPdf::53                      0                       # What write queue length does an incoming req see
system.mem_ctrls.wrQLenPdf::54                      0                       # What write queue length does an incoming req see
system.mem_ctrls.wrQLenPdf::55                      0                       # What write queue length does an incoming req see
system.mem_ctrls.wrQLenPdf::56                      0                       # What write queue length does an incoming req see
system.mem_ctrls.wrQLenPdf::57                      0                       # What write queue length does an incoming req see
system.mem_ctrls.wrQLenPdf::58                      0                       # What write queue length does an incoming req see
system.mem_ctrls.wrQLenPdf::59                      0                       # What write queue length does an incoming req see
system.mem_ctrls.wrQLenPdf::60                      0                       # What write queue length does an incoming req see
system.mem_ctrls.wrQLenPdf::61                      0                       # What write queue length does an incoming req see
system.mem_ctrls.wrQLenPdf::62                      0                       # What write queue length does an incoming req see
system.mem_ctrls.wrQLenPdf::63                      0                       # What write queue length does an incoming req see
system.mem_ctrls.rdPerTurnAround::samples          293                       # Reads before turning the bus around for writes
system.mem_ctrls.rdPerTurnAround::mean     131.737201                       # Reads before turning the bus around for writes
system.mem_ctrls.rdPerTurnAround::gmean     19.212759                       # Reads before turning the bus around for writes
system.mem_ctrls.rdPerTurnAround::stdev   1909.677197                       # Reads before turning the bus around for writes
system.mem_ctrls.rdPerTurnAround::0-1023          292     99.66%     99.66% # Reads before turning the bus around for writes
system.mem_ctrls.rdPerTurnAround::31744-32767            1      0.34%    100.00% # Reads before turning the bus around for writes
system.mem_ctrls.rdPerTurnAround::total           293                       # Reads before turning the bus around for writes
system.mem_ctrls.wrPerTurnAround::samples          293                       # Writes before turning the bus around for reads
system.mem_ctrls.wrPerTurnAround::mean      18.017065                       # Writes before turning the bus around for reads
system.mem_ctrls.wrPerTurnAround::gmean     18.016615                       # Writes before turning the bus around for reads
system.mem_ctrls.wrPerTurnAround::stdev      0.129735                       # Writes before turning the bus around for reads
system.mem_ctrls.wrPerTurnAround::18              288     98.29%     98.29% # Writes before turning the bus around for reads
system.mem_ctrls.wrPerTurnAround::19                5      1.71%    100.00% # Writes before turning the bus around for reads
system.mem_ctrls.wrPerTurnAround::total           293                       # Writes before turning the bus around for reads
system.mem_ctrls.bytesReadWrQ                       0                       # Total number of bytes read from write queue
system.mem_ctrls.bytesReadSys                 2470592                       # Total read bytes from the system interface side
system.mem_ctrls.bytesWrittenSys               339072                       # Total written bytes from the system interface side
system.mem_ctrls.avgRdBWSys                     41.96                       # Average system read bandwidth in MiByte/s
system.mem_ctrls.avgWrBWSys                      5.76                       # Average system write bandwidth in MiByte/s
system.mem_ctrls.totGap                   58874932000                       # Total gap between requests
system.mem_ctrls.avgGap                    1341084.08                       # Average gap between requests
system.mem_ctrls.requestorReadBytes::.cpu.inst        32896                       # Per-requestor bytes read from memory
system.mem_ctrls.requestorReadBytes::.cpu.data      2437696                       # Per-requestor bytes read from memory
system.mem_ctrls.requestorWriteBytes::.writebacks       337856                       # Per-requestor bytes write to memory
system.mem_ctrls.requestorReadRate::.cpu.inst 558720.969217830803                       # Per-requestor bytes read from memory rate (Bytes/sec)
system.mem_ctrls.requestorReadRate::.cpu.data 41402963.028283961117                       # Per-requestor bytes read from memory rate (Bytes/sec)
system.mem_ctrls.requestorWriteRate::.writebacks 5738303.495137993246                       # Per-requestor bytes write to memory rate (Bytes/sec)
system.mem_ctrls.requestorReadAccesses::.cpu.inst          514                       # Per-requestor read serviced memory accesses
system.mem_ctrls.requestorReadAccesses::.cpu.data        38089                       # Per-requestor read serviced memory accesses
system.mem_ctrls.requestorWriteAccesses::.writebacks         5298                       # Per-requestor write serviced memory accesses
system.mem_ctrls.requestorReadTotalLat::.cpu.inst     12481250                       # Per-requestor read total memory access latency
system.mem_ctrls.requestorReadTotalLat::.cpu.data    936709500                       # Per-requestor read total memory access latency
system.mem_ctrls.requestorWriteTotalLat::.writebacks 501348171000                       # Per-requestor write total memory access latency
system.mem_ctrls.requestorReadAvgLat::.cpu.inst     24282.59                       # Per-requestor read average memory access latency
system.mem_ctrls.requestorReadAvgLat::.cpu.data     24592.65                       # Per-requestor read average memory access latency
system.mem_ctrls.requestorWriteAvgLat::.writebacks  94629703.85                       # Per-requestor write average memory access latency
system.mem_ctrls.dram.bytes_read::.cpu.inst        32896                       # Number of bytes read from this memory
system.mem_ctrls.dram.bytes_read::.cpu.data      2437696                       # Number of bytes read from this memory
system.mem_ctrls.dram.bytes_read::total       2470592                       # Number of bytes read from this memory
system.mem_ctrls.dram.bytes_inst_read::.cpu.inst        32896                       # Number of instructions bytes read from this memory
system.mem_ctrls.dram.bytes_inst_read::total        32896                       # Number of instructions bytes read from this memory
system.mem_ctrls.dram.bytes_written::.writebacks       339072                       # Number of bytes written to this memory
system.mem_ctrls.dram.bytes_written::total       339072                       # Number of bytes written to this memory
system.mem_ctrls.dram.num_reads::.cpu.inst          514                       # Number of read requests responded to by this memory
system.mem_ctrls.dram.num_reads::.cpu.data        38089                       # Number of read requests responded to by this memory
system.mem_ctrls.dram.num_reads::total          38603                       # Number of read requests responded to by this memory
system.mem_ctrls.dram.num_writes::.writebacks         5298                       # Number of write requests responded to by this memory
system.mem_ctrls.dram.num_writes::total          5298                       # Number of write requests responded to by this memory
system.mem_ctrls.dram.bw_read::.cpu.inst       558721                       # Total read bandwidth from this memory (bytes/s)
system.mem_ctrls.dram.bw_read::.cpu.data     41402963                       # Total read bandwidth from this memory (bytes/s)
system.mem_ctrls.dram.bw_read::total         41961684                       # Total read bandwidth from this memory (bytes/s)
system.mem_ctrls.dram.bw_inst_read::.cpu.inst       558721                       # Instruction read bandwidth from this memory (bytes/s)
system.mem_ctrls.dram.bw_inst_read::total       558721                       # Instruction read bandwidth from this memory (bytes/s)
system.mem_ctrls.dram.bw_write::.writebacks      5758957                       # Write bandwidth from this memory (bytes/s)
system.mem_ctrls.dram.bw_write::total         5758957                       # Write bandwidth from this memory (bytes/s)
system.mem_ctrls.dram.bw_total::.writebacks      5758957                       # Total bandwidth to/from this memory (bytes/s)
system.mem_ctrls.dram.bw_total::.cpu.inst       558721                       # Total bandwidth to/from this memory (bytes/s)
system.mem_ctrls.dram.bw_total::.cpu.data     41402963                       # Total bandwidth to/from this memory (bytes/s)
system.mem_ctrls.dram.bw_total::total        47720641                       # Total bandwidth to/from this memory (bytes/s)
system.mem_ctrls.dram.readBursts                38603                       # Number of DRAM read bursts
system.mem_ctrls.dram.writeBursts                5279                       # Number of DRAM write bursts
system.mem_ctrls.dram.perBankRdBursts::0         2373                       # Per bank write bursts
system.mem_ctrls.dram.perBankRdBursts::1         2350                       # Per bank write bursts
system.mem_ctrls.dram.perBankRdBursts::2         2353                       # Per bank write bursts
system.mem_ctrls.dram.perBankRdBursts::3         2477                       # Per bank write bursts
system.mem_ctrls.dram.perBankRdBursts::4         2476                       # Per bank write bursts
system.mem_ctrls.dram.perBankRdBursts::5         2480                       # Per bank write bursts
system.mem_ctrls.dram.perBankRdBursts::6         2486                       # Per bank write bursts
system.mem_ctrls.dram.perBankRdBursts::7         2465                       # Per bank write bursts
system.mem_ctrls.dram.perBankRdBursts::8         2491                       # Per bank write bursts
system.mem_ctrls.dram.perBankRdBursts::9         2464                       # Per bank write bursts
system.mem_ctrls.dram.perBankRdBursts::10         2489                       # Per bank write bursts
system.mem_ctrls.dram.perBankRdBursts::11         2353                       # Per bank write bursts
system.mem_ctrls.dram.perBankRdBursts::12         2319                       # Per bank write bursts
system.mem_ctrls.dram.perBankRdBursts::13         2310                       # Per bank write bursts
system.mem_ctrls.dram.perBankRdBursts::14         2374                       # Per bank write bursts
system.mem_ctrls.dram.perBankRdBursts::15         2343                       # Per bank write bursts
system.mem_ctrls.dram.perBankWrBursts::0          278                       # Per bank write bursts
system.mem_ctrls.dram.perBankWrBursts::1          271                       # Per bank write bursts
system.mem_ctrls.dram.perBankWrBursts::2          294                       # Per bank write bursts
system.mem_ctrls.dram.perBankWrBursts::3          370                       # Per bank write bursts
system.mem_ctrls.dram.perBankWrBursts::4          336                       # Per bank write bursts
system.mem_ctrls.dram.perBankWrBursts::5          393                       # Per bank write bursts
system.mem_ctrls.dram.perBankWrBursts::6          378                       # Per bank write bursts
system.mem_ctrls.dram.perBankWrBursts::7          387                       # Per bank write bursts
system.mem_ctrls.dram.perBankWrBursts::8          397                       # Per bank write bursts
system.mem_ctrls.dram.perBankWrBursts::9          394                       # Per bank write bursts
system.mem_ctrls.dram.perBankWrBursts::10          387                       # Per bank write bursts
system.mem_ctrls.dram.perBankWrBursts::11          266                       # Per bank write bursts
system.mem_ctrls.dram.perBankWrBursts::12          271                       # Per bank write bursts
system.mem_ctrls.dram.perBankWrBursts::13          261                       # Per bank write bursts
system.mem_ctrls.dram.perBankWrBursts::14          304                       # Per bank write bursts
system.mem_ctrls.dram.perBankWrBursts::15          292                       # Per bank write bursts
system.mem_ctrls.dram.totQLat               225384500                       # Total ticks spent queuing
system.mem_ctrls.dram.totBusLat             193015000                       # Total ticks spent in databus transfers
system.mem_ctrls.dram.totMemAccLat          949190750                       # Total ticks spent from burst creation until serviced by the DRAM
system.mem_ctrls.dram.avgQLat                 5838.52                       # Average queueing delay per DRAM burst
system.mem_ctrls.dram.avgBusLat               5000.00                       # Average bus latency per DRAM burst
system.mem_ctrls.dram.avgMemAccLat           24588.52                       # Average memory access latency per DRAM burst
system.mem_ctrls.dram.readRowHits               29057                       # Number of row buffer hits during reads
system.mem_ctrls.dram.writeRowHits               4500                       # Number of row buffer hits during writes
system.mem_ctrls.dram.readRowHitRate            75.27                       # Row buffer hit rate for reads
system.mem_ctrls.dram.writeRowHitRate           85.24                       # Row buffer hit rate for writes
system.mem_ctrls.dram.bytesPerActivate::samples        10324                       # Bytes accessed per row activation
system.mem_ctrls.dram.bytesPerActivate::mean   272.018597                       # Bytes accessed per row activation
system.mem_ctrls.dram.bytesPerActivate::gmean   212.227346                       # Bytes accessed per row activation
system.mem_ctrls.dram.bytesPerActivate::stdev   229.194066                       # Bytes accessed per row activation
system.mem_ctrls.dram.bytesPerActivate::0-127          854      8.27%      8.27% # Bytes accessed per row activation
system.mem_ctrls.dram.bytesPerActivate::128-255         6829     66.15%     74.42% # Bytes accessed per row activation
system.mem_ctrls.dram.bytesPerActivate::256-383          773      7.49%     81.91% # Bytes accessed per row activation
system.mem_ctrls.dram.bytesPerActivate::384-511          313      3.03%     84.94% # Bytes accessed per row activation
system.mem_ctrls.dram.bytesPerActivate::512-639          436      4.22%     89.16% # Bytes accessed per row activation
system.mem_ctrls.dram.bytesPerActivate::640-767          257      2.49%     91.65% # Bytes accessed per row activation
system.mem_ctrls.dram.bytesPerActivate::768-895          199      1.93%     93.58% # Bytes accessed per row activation
system.mem_ctrls.dram.bytesPerActivate::896-1023          489      4.74%     98.31% # Bytes accessed per row activation
system.mem_ctrls.dram.bytesPerActivate::1024-1151          174      1.69%    100.00% # Bytes accessed per row activation
system.mem_ctrls.dram.bytesPerActivate::total        10324                       # Bytes accessed per row activation
system.mem_ctrls.dram.bytesRead               2470592                       # Total number of bytes read from DRAM
system.mem_ctrls.dram.bytesWritten             337856                       # Total number of bytes written to DRAM
system.mem_ctrls.dram.avgRdBW               41.961684                       # Average DRAM read bandwidth in MiBytes/s
system.mem_ctrls.dram.avgWrBW                5.738303                       # Average DRAM write bandwidth in MiBytes/s
system.mem_ctrls.dram.peakBW                 12800.00                       # Theoretical peak bandwidth in MiByte/s
system.mem_ctrls.dram.busUtil                    0.37                       # Data bus utilization in percentage
system.mem_ctrls.dram.busUtilRead                0.33                       # Data bus utilization in percentage for reads
system.mem_ctrls.dram.busUtilWrite               0.04                       # Data bus utilization in percentage for writes
system.mem_ctrls.dram.pageHitRate               76.47                       # Row buffer hit rate, read and write combined
system.mem_ctrls.dram.rank1.actEnergy        35928480                       # Energy for activate commands per rank (pJ)
system.mem_ctrls.dram.rank1.preEnergy        19092645                       # Energy for precharge commands per rank (pJ)
system.mem_ctrls.dram.rank1.readEnergy      136681020                       # Energy for read commands per rank (pJ)
system.mem_ctrls.dram.rank1.writeEnergy      13425840                       # Energy for write commands per rank (pJ)
system.mem_ctrls.dram.rank1.refreshEnergy 4647293040.000001                       # Energy for refresh commands per rank (pJ)
system.mem_ctrls.dram.rank1.actBackEnergy  12283675560                       # Energy for active background per rank (pJ)
system.mem_ctrls.dram.rank1.preBackEnergy  12264747840                       # Energy for precharge background per rank (pJ)
system.mem_ctrls.dram.rank1.actPowerDownEnergy            0                       # Energy for active power-down per rank (pJ)
system.mem_ctrls.dram.rank1.prePowerDownEnergy            0                       # Energy for precharge power-down per rank (pJ)
system.mem_ctrls.dram.rank1.selfRefreshEnergy            0                       # Energy for self refresh per rank (pJ)
system.mem_ctrls.dram.rank1.totalEnergy   29400844425                       # Total energy per rank (pJ)
system.mem_ctrls.dram.rank1.averagePower   499.357621                       # Core power per rank (mW)
system.mem_ctrls.dram.rank1.totalIdleTime            0                       # Total Idle time Per DRAM Rank
system.mem_ctrls.dram.rank1.pwrStateTime::IDLE  31776379500                       # Time in different power states
system.mem_ctrls.dram.rank1.pwrStateTime::REF   1965860000                       # Time in different power states
system.mem_ctrls.dram.rank1.pwrStateTime::SREF            0                       # Time in different power states
system.mem_ctrls.dram.rank1.pwrStateTime::PRE_PDN            0                       # Time in different power states
system.mem_ctrls.dram.rank1.pwrStateTime::ACT  25135092500                       # Time in different power states
system.mem_ctrls.dram.rank1.pwrStateTime::ACT_PDN            0                       # Time in different power states
system.mem_ctrls.dram.rank0.actEnergy        37792020                       # Energy for activate commands per rank (pJ)
system.mem_ctrls.dram.rank0.preEnergy        20086935                       # Energy for precharge commands per rank (pJ)
system.mem_ctrls.dram.rank0.readEnergy      138944400                       # Energy for read commands per rank (pJ)
system.mem_ctrls.dram.rank0.writeEnergy      14130540                       # Energy for write commands per rank (pJ)
system.mem_ctrls.dram.rank0.refreshEnergy 4647293040.000001                       # Energy for refresh commands per rank (pJ)
system.mem_ctrls.dram.rank0.actBackEnergy  12560257800                       # Energy for active background per rank (pJ)
system.mem_ctrls.dram.rank0.preBackEnergy  12031836480                       # Energy for precharge background per rank (pJ)
system.mem_ctrls.dram.rank0.actPowerDownEnergy            0                       # Energy for active power-down per rank (pJ)
system.mem_ctrls.dram.rank0.prePowerDownEnergy            0                       # Energy for precharge power-down per rank (pJ)
system.mem_ctrls.dram.rank0.selfRefreshEnergy            0                       # Energy for self refresh per rank (pJ)
system.mem_ctrls.dram.rank0.totalEnergy   29450341215                       # Total energy per rank (pJ)
system.mem_ctrls.dram.rank0.averagePower   500.198297                       # Core power per rank (mW)
system.mem_ctrls.dram.rank0.totalIdleTime            0                       # Total Idle time Per DRAM Rank
system.mem_ctrls.dram.rank0.pwrStateTime::IDLE  31168314000                       # Time in different power states
system.mem_ctrls.dram.rank0.pwrStateTime::REF   1965860000                       # Time in different power states
system.mem_ctrls.dram.rank0.pwrStateTime::SREF            0                       # Time in different power states
system.mem_ctrls.dram.rank0.pwrStateTime::PRE_PDN            0                       # Time in different power states
system.mem_ctrls.dram.rank0.pwrStateTime::ACT  25743158000                       # Time in different power states
system.mem_ctrls.dram.rank0.pwrStateTime::ACT_PDN            0                       # Time in different power states
system.mem_ctrls.dram.power_state.pwrStateResidencyTicks::UNDEFINED  58877332000                       # Cumulative time (in ticks) in various power states
system.mem_ctrls.power_state.pwrStateResidencyTicks::UNDEFINED  58877332000                       # Cumulative time (in ticks) in various power states
system.cpu_clk_domain.clock                       500                       # Clock period in ticks
system.cpu.icache.demand_hits::.cpu.inst     30328900                       # number of demand (read+write) hits
system.cpu.icache.demand_hits::total         30328900                       # number of demand (read+write) hits
system.cpu.icache.overall_hits::.cpu.inst     30328900                       # number of overall hits
system.cpu.icache.overall_hits::total        30328900                       # number of overall hits
system.cpu.icache.demand_misses::.cpu.inst       131766                       # number of demand (read+write) misses
system.cpu.icache.demand_misses::total         131766                       # number of demand (read+write) misses
system.cpu.icache.overall_misses::.cpu.inst       131766                       # number of overall misses
system.cpu.icache.overall_misses::total        131766                       # number of overall misses
system.cpu.icache.demand_miss_latency::.cpu.inst   1746221000                       # number of demand (read+write) miss cycles
system.cpu.icache.demand_miss_latency::total   1746221000                       # number of demand (read+write) miss cycles
system.cpu.icache.overall_miss_latency::.cpu.inst   1746221000                       # number of overall miss cycles
system.cpu.icache.overall_miss_latency::total   1746221000                       # number of overall miss cycles
system.cpu.icache.demand_accesses::.cpu.inst     30460666                       # number of demand (read+write) accesses
system.cpu.icache.demand_accesses::total     30460666                       # number of demand (read+write) accesses
system.cpu.icache.overall_accesses::.cpu.inst     30460666                       # number of overall (read+write) accesses
system.cpu.icache.overall_accesses::total     30460666                       # number of overall (read+write) accesses
system.cpu.icache.demand_miss_rate::.cpu.inst     0.004326                       # miss rate for demand accesses
system.cpu.icache.demand_miss_rate::total     0.004326                       # miss rate for demand accesses
system.cpu.icache.overall_miss_rate::.cpu.inst     0.004326                       # miss rate for overall accesses
system.cpu.icache.overall_miss_rate::total     0.004326                       # miss rate for overall accesses
system.cpu.icache.demand_avg_miss_latency::.cpu.inst 13252.439931                       # average overall miss latency
system.cpu.icache.demand_avg_miss_latency::total 13252.439931                       # average overall miss latency
system.cpu.icache.overall_avg_miss_latency::.cpu.inst 13252.439931                       # average overall miss latency
system.cpu.icache.overall_avg_miss_latency::total 13252.439931                       # average overall miss latency
system.cpu.icache.blocked_cycles::no_mshrs            0                       # number of cycles access was blocked
system.cpu.icache.blocked_cycles::no_targets            0                       # number of cycles access was blocked
system.cpu.icache.blocked::no_mshrs                 0                       # number of cycles access was blocked
system.cpu.icache.blocked::no_targets               0                       # number of cycles access was blocked
system.cpu.icache.avg_blocked_cycles::no_mshrs          nan                       # average number of cycles each access was blocked
system.cpu.icache.avg_blocked_cycles::no_targets          nan                       # average number of cycles each access was blocked
system.cpu.icache.writebacks::.writebacks       131363                       # number of writebacks
system.cpu.icache.writebacks::total            131363                       # number of writebacks
system.cpu.icache.demand_mshr_misses::.cpu.inst       131766                       # number of demand (read+write) MSHR misses
system.cpu.icache.demand_mshr_misses::total       131766                       # number of demand (read+write) MSHR misses
system.cpu.icache.overall_mshr_misses::.cpu.inst       131766                       # number of overall MSHR misses
system.cpu.icache.overall_mshr_misses::total       131766                       # number of overall MSHR misses
system.cpu.icache.demand_mshr_miss_latency::.cpu.inst   1614455000                       # number of demand (read+write) MSHR miss cycles
system.cpu.icache.demand_mshr_miss_latency::total   1614455000                       # number of demand (read+write) MSHR miss cycles
system.cpu.icache.overall_mshr_miss_latency::.cpu.inst   1614455000                       # number of overall MSHR miss cycles
system.cpu.icache.overall_mshr_miss_latency::total   1614455000                       # number of overall MSHR miss cycles
system.cpu.icache.demand_mshr_miss_rate::.cpu.inst     0.004326                       # mshr miss rate for demand accesses
system.cpu.icache.demand_mshr_miss_rate::total     0.004326                       # mshr miss rate for demand accesses
system.cpu.icache.overall_mshr_miss_rate::.cpu.inst     0.004326                       # mshr miss rate for overall accesses
system.cpu.icache.overall_mshr_miss_rate::total     0.004326                       # mshr miss rate for overall accesses
system.cpu.icache.demand_avg_mshr_miss_latency::.cpu.inst 12252.439931                       # average overall mshr miss latency
system.cpu.icache.demand_avg_mshr_miss_latency::total 12252.439931                       # average overall mshr miss latency
system.cpu.icache.overall_avg_mshr_miss_latency::.cpu.inst 12252.439931                       # average overall mshr miss latency
system.cpu.icache.overall_avg_mshr_miss_latency::total 12252.439931                       # average overall mshr miss latency
system.cpu.icache.replacements                 131363                       # number of replacements
system.cpu.icache.ReadReq_hits::.cpu.inst     30328900                       # number of ReadReq hits
system.cpu.icache.ReadReq_hits::total        30328900                       # number of ReadReq hits
system.cpu.icache.ReadReq_misses::.cpu.inst       131766                       # number of ReadReq misses
system.cpu.icache.ReadReq_misses::total        131766                       # number of ReadReq misses
system.cpu.icache.ReadReq_miss_latency::.cpu.inst   1746221000                       # number of ReadReq miss cycles
system.cpu.icache.ReadReq_miss_latency::total   1746221000                       # number of ReadReq miss cycles
system.cpu.icache.ReadReq_accesses::.cpu.inst     30460666                       # number of ReadReq accesses(hits+misses)
[...]
system.cpu.dcache.ReadReq_avg_mshr_miss_latency::total 13222.737147                       # average ReadReq mshr miss latency
system.cpu.dcache.WriteReq_hits::.cpu.data     13874110                       # number of WriteReq hits
system.cpu.dcache.WriteReq_hits::total       13874110                       # number of WriteReq hits
system.cpu.dcache.WriteReq_misses::.cpu.data        54339                       # number of WriteReq misses
system.cpu.dcache.WriteReq_misses::total        54339                       # number of WriteReq misses
system.cpu.dcache.WriteReq_miss_latency::.cpu.data   3926708000                       # number of WriteReq miss cycles
system.cpu.dcache.WriteReq_miss_latency::total   3926708000                       # number of WriteReq miss cycles
system.cpu.dcache.WriteReq_accesses::.cpu.data     13928449                       # number of WriteReq accesses(hits+misses)
system.cpu.dcache.WriteReq_accesses::total     13928449                       # number of WriteReq accesses(hits+misses)
system.cpu.dcache.WriteReq_miss_rate::.cpu.data     0.003901                       # miss rate for WriteReq accesses
system.cpu.dcache.WriteReq_miss_rate::total     0.003901                       # miss rate for WriteReq accesses
system.cpu.dcache.WriteReq_avg_miss_latency::.cpu.data 72263.162738                       # average WriteReq miss latency
system.cpu.dcache.WriteReq_avg_miss_latency::total 72263.162738                       # average WriteReq miss latency
system.cpu.dcache.WriteReq_mshr_hits::.cpu.data        16539                       # number of WriteReq MSHR hits
system.cpu.dcache.WriteReq_mshr_hits::total        16539                       # number of WriteReq MSHR hits
system.cpu.dcache.WriteReq_mshr_misses::.cpu.data        37800                       # number of WriteReq MSHR misses
system.cpu.dcache.WriteReq_mshr_misses::total        37800                       # number of WriteReq MSHR misses
system.cpu.dcache.WriteReq_mshr_miss_latency::.cpu.data   2908076000                       # number of WriteReq MSHR miss cycles
system.cpu.dcache.WriteReq_mshr_miss_latency::total   2908076000                       # number of WriteReq MSHR miss cycles
system.cpu.dcache.WriteReq_mshr_miss_rate::.cpu.data     0.002714                       # mshr miss rate for WriteReq accesses
system.cpu.dcache.WriteReq_mshr_miss_rate::total     0.002714                       # mshr miss rate for WriteReq accesses
system.cpu.dcache.WriteReq_avg_mshr_miss_latency::.cpu.data 76933.227513                       # average WriteReq mshr miss latency
system.cpu.dcache.WriteReq_avg_mshr_miss_latency::total 76933.227513                       # average WriteReq mshr miss latency
system.cpu.dcache.SoftPFReq_hits::.cpu.data         3001                       # number of SoftPFReq hits
system.cpu.dcache.SoftPFReq_hits::total          3001                       # number of SoftPFReq hits
system.cpu.dcache.SoftPFReq_misses::.cpu.data           56                       # number of SoftPFReq misses
system.cpu.dcache.SoftPFReq_misses::total           56                       # number of SoftPFReq misses
system.cpu.dcache.SoftPFReq_accesses::.cpu.data         3057                       # number of SoftPFReq accesses(hits+misses)
system.cpu.dcache.SoftPFReq_accesses::total         3057                       # number of SoftPFReq accesses(hits+misses)
system.cpu.dcache.SoftPFReq_miss_rate::.cpu.data     0.018319                       # miss rate for SoftPFReq accesses
system.cpu.dcache.SoftPFReq_miss_rate::total     0.018319                       # miss rate for SoftPFReq accesses
system.cpu.dcache.SoftPFReq_mshr_misses::.cpu.data           51                       # number of SoftPFReq MSHR misses
system.cpu.dcache.SoftPFReq_mshr_misses::total           51                       # number of SoftPFReq MSHR misses
system.cpu.dcache.SoftPFReq_mshr_miss_latency::.cpu.data      1521500                       # number of SoftPFReq MSHR miss cycles
system.cpu.dcache.SoftPFReq_mshr_miss_latency::total      1521500                       # number of SoftPFReq MSHR miss cycles
system.cpu.dcache.SoftPFReq_mshr_miss_rate::.cpu.data     0.016683                       # mshr miss rate for SoftPFReq accesses
system.cpu.dcache.SoftPFReq_mshr_miss_rate::total     0.016683                       # mshr miss rate for SoftPFReq accesses
system.cpu.dcache.SoftPFReq_avg_mshr_miss_latency::.cpu.data 29833.333333                       # average SoftPFReq mshr miss latency
system.cpu.dcache.SoftPFReq_avg_mshr_miss_latency::total 29833.333333                       # average SoftPFReq mshr miss latency
system.cpu.dcache.LoadLockedReq_hits::.cpu.data        84956                       # number of LoadLockedReq hits
system.cpu.dcache.LoadLockedReq_hits::total        84956                       # number of LoadLockedReq hits
system.cpu.dcache.LoadLockedReq_misses::.cpu.data            1                       # number of LoadLockedReq misses
system.cpu.dcache.LoadLockedReq_misses::total            1                       # number of LoadLockedReq misses
system.cpu.dcache.LoadLockedReq_miss_latency::.cpu.data        86000                       # number of LoadLockedReq miss cycles
system.cpu.dcache.LoadLockedReq_miss_latency::total        86000                       # number of LoadLockedReq miss cycles
system.cpu.dcache.LoadLockedReq_accesses::.cpu.data        84957                       # number of LoadLockedReq accesses(hits+misses)
system.cpu.dcache.LoadLockedReq_accesses::total        84957                       # number of LoadLockedReq accesses(hits+misses)
system.cpu.dcache.LoadLockedReq_miss_rate::.cpu.data     0.000012                       # miss rate for LoadLockedReq accesses
system.cpu.dcache.LoadLockedReq_miss_rate::total     0.000012                       # miss rate for LoadLockedReq accesses
system.cpu.dcache.LoadLockedReq_avg_miss_latency::.cpu.data        86000                       # average LoadLockedReq miss latency
system.cpu.dcache.LoadLockedReq_avg_miss_latency::total        86000                       # average LoadLockedReq miss latency
system.cpu.dcache.LoadLockedReq_mshr_misses::.cpu.data            1                       # number of LoadLockedReq MSHR misses
system.cpu.dcache.LoadLockedReq_mshr_misses::total            1                       # number of LoadLockedReq MSHR misses
system.cpu.dcache.LoadLockedReq_mshr_miss_latency::.cpu.data        85000                       # number of LoadLockedReq MSHR miss cycles
system.cpu.dcache.LoadLockedReq_mshr_miss_latency::total        85000                       # number of LoadLockedReq MSHR miss cycles
system.cpu.dcache.LoadLockedReq_mshr_miss_rate::.cpu.data     0.000012                       # mshr miss rate for LoadLockedReq accesses
system.cpu.dcache.LoadLockedReq_mshr_miss_rate::total     0.000012                       # mshr miss rate for LoadLockedReq accesses
system.cpu.dcache.LoadLockedReq_avg_mshr_miss_latency::.cpu.data        85000                       # average LoadLockedReq mshr miss latency
system.cpu.dcache.LoadLockedReq_avg_mshr_miss_latency::total        85000                       # average LoadLockedReq mshr miss latency
system.cpu.dcache.StoreCondReq_hits::.cpu.data        84957                       # number of StoreCondReq hits
system.cpu.dcache.StoreCondReq_hits::total        84957                       # number of StoreCondReq hits
system.cpu.dcache.StoreCondReq_accesses::.cpu.data        84957                       # number of StoreCondReq accesses(hits+misses)
system.cpu.dcache.StoreCondReq_accesses::total        84957                       # number of StoreCondReq accesses(hits+misses)
system.cpu.dcache.power_state.pwrStateResidencyTicks::UNDEFINED  58877332000                       # Cumulative time (in ticks) in various power states
system.cpu.dcache.tags.tagsinuse           511.075032                       # Cycle average of tags in use
system.cpu.dcache.tags.total_refs            35551951                       # Total number of references to valid blocks.
system.cpu.dcache.tags.sampled_refs             58567                       # Sample count of references to valid blocks.
system.cpu.dcache.tags.avg_refs            607.030427                       # Average number of references to valid blocks.
system.cpu.dcache.tags.warmup_cycle            195500                       # Cycle when the warmup percentage was hit.
system.cpu.dcache.tags.occ_blocks::.cpu.data   511.075032                       # Average occupied blocks per requestor
system.cpu.dcache.tags.occ_percent::.cpu.data     0.998193                       # Average percentage of cache occupancy
system.cpu.dcache.tags.occ_percent::total     0.998193                       # Average percentage of cache occupancy
system.cpu.dcache.tags.occ_task_id_blocks::1024          512                       # Occupied blocks per task id
system.cpu.dcache.tags.age_task_id_blocks_1024::0            8                       # Occupied blocks per task id
system.cpu.dcache.tags.age_task_id_blocks_1024::1           56                       # Occupied blocks per task id
system.cpu.dcache.tags.age_task_id_blocks_1024::2          361                       # Occupied blocks per task id
system.cpu.dcache.tags.age_task_id_blocks_1024::3           64                       # Occupied blocks per task id
system.cpu.dcache.tags.age_task_id_blocks_1024::4           23                       # Occupied blocks per task id
system.cpu.dcache.tags.occ_task_id_percent::1024            1                       # Percentage of cache occupancy per task id
system.cpu.dcache.tags.tag_accesses          71195583                       # Number of tag accesses
system.cpu.dcache.tags.data_accesses         71195583                       # Number of data accesses
system.cpu.dcache.tags.power_state.pwrStateResidencyTicks::UNDEFINED  58877332000                       # Cumulative time (in ticks) in various power states
system.cpu.power_state.pwrStateResidencyTicks::ON  58877332000                       # Cumulative time (in ticks) in various power states
system.cpu.branchPred.lookups                20573676                       # Number of BP lookups
system.cpu.branchPred.condPredicted          15670999                       # Number of conditional branches predicted
system.cpu.branchPred.condIncorrect            123297                       # Number of conditional branches incorrect
system.cpu.branchPred.BTBLookups              9472805                       # Number of BTB lookups
system.cpu.branchPred.BTBHits                 9471674                       # Number of BTB hits
system.cpu.branchPred.BTBHitPct             99.988061                       # BTB Hit Percentage
system.cpu.branchPred.RASUsed                 1002155                       # Number of times the RAS was used to get a target.
system.cpu.branchPred.RASIncorrect                299                       # Number of incorrect RAS predictions.
system.cpu.branchPred.indirectLookups          328174                       # Number of indirect predictor lookups.
system.cpu.branchPred.indirectHits             285510                       # Number of indirect target hits.
system.cpu.branchPred.indirectMisses            42664                       # Number of indirect misses.
system.cpu.branchPred.indirectMispredicted         1077                       # Number of mispredicted indirect branches.
system.cpu.fetch2.intInstructions            47337281                       # Number of integer instructions successfully decoded
system.cpu.fetch2.fpInstructions                    0                       # Number of floating point instructions successfully decoded
system.cpu.fetch2.vecInstructions                   0                       # Number of SIMD instructions successfully decoded
system.cpu.fetch2.loadInstructions           18439528                       # Number of memory load instructions successfully decoded
system.cpu.fetch2.storeInstructions           9797831                       # Number of memory store instructions successfully decoded
system.cpu.fetch2.amoInstructions                   0                       # Number of memory atomic instructions successfully decoded
system.cpu.itb.instHits                             0                       # ITB inst hits
system.cpu.itb.instMisses                           0                       # ITB inst misses
system.cpu.itb.readHits                             0                       # DTB read hits
system.cpu.itb.readMisses                           0                       # DTB read misses
system.cpu.itb.writeHits                            0                       # DTB write hits
system.cpu.itb.writeMisses                          0                       # DTB write misses
system.cpu.itb.inserts                              0                       # Number of times an entry is inserted into the TLB
system.cpu.itb.flushTlb                             0                       # Number of times complete TLB was flushed
system.cpu.itb.flushTlbMva                          0                       # Number of times TLB was flushed by MVA
system.cpu.itb.flushTlbMvaAsid                      0                       # Number of times TLB was flushed by MVA & ASID
system.cpu.itb.flushTlbAsid                         0                       # Number of times TLB was flushed by ASID
system.cpu.itb.flushedEntries                       0                       # Number of entries that have been flushed from TLB
system.cpu.itb.alignFaults                          0                       # Number of TLB faults due to alignment restrictions
system.cpu.itb.prefetchFaults                       0                       # Number of TLB faults due to prefetch
system.cpu.itb.domainFaults                         0                       # Number of TLB faults due to domain restrictions
system.cpu.itb.permsFaults                          0                       # Number of TLB faults due to permissions restrictions
system.cpu.itb.readAccesses                         0                       # DTB read accesses
system.cpu.itb.writeAccesses                        0                       # DTB write accesses
system.cpu.itb.instAccesses                         0                       # ITB inst accesses
system.cpu.itb.hits                                 0                       # Total TLB (inst and data) hits
system.cpu.itb.misses                               0                       # Total TLB (inst and data) misses
system.cpu.itb.accesses                             0                       # Total TLB (inst and data) accesses
system.cpu.itb.walker.walks                         0                       # Table walker walks requested
system.cpu.itb.walker.requestOrigin_Requested::Data            0                       # Table walker requests started/completed, data/inst
system.cpu.itb.walker.requestOrigin_Requested::Inst            0                       # Table walker requests started/completed, data/inst
system.cpu.itb.walker.requestOrigin_Requested::total            0                       # Table walker requests started/completed, data/inst
system.cpu.itb.walker.requestOrigin_Completed::Data            0                       # Table walker requests started/completed, data/inst
system.cpu.itb.walker.requestOrigin_Completed::Inst            0                       # Table walker requests started/completed, data/inst
system.cpu.itb.walker.requestOrigin_Completed::total            0                       # Table walker requests started/completed, data/inst
system.cpu.itb.walker.requestOrigin::total            0                       # Table walker requests started/completed, data/inst
system.cpu.itb.walker.power_state.pwrStateResidencyTicks::UNDEFINED  58877332000                       # Cumulative time (in ticks) in various power states
system.cpu.itb.stage2_mmu.stage2_tlb.instHits            0                       # ITB inst hits
system.cpu.itb.stage2_mmu.stage2_tlb.instMisses            0                       # ITB inst misses
system.cpu.itb.stage2_mmu.stage2_tlb.readHits            0                       # DTB read hits
system.cpu.itb.stage2_mmu.stage2_tlb.readMisses            0                       # DTB read misses
system.cpu.itb.stage2_mmu.stage2_tlb.writeHits            0                       # DTB write hits
system.cpu.itb.stage2_mmu.stage2_tlb.writeMisses            0                       # DTB write misses
system.cpu.itb.stage2_mmu.stage2_tlb.inserts            0                       # Number of times an entry is inserted into the TLB
system.cpu.itb.stage2_mmu.stage2_tlb.flushTlb            0                       # Number of times complete TLB was flushed
system.cpu.itb.stage2_mmu.stage2_tlb.flushTlbMva            0                       # Number of times TLB was flushed by MVA
system.cpu.itb.stage2_mmu.stage2_tlb.flushTlbMvaAsid            0                       # Number of times TLB was flushed by MVA & ASID
system.cpu.itb.stage2_mmu.stage2_tlb.flushTlbAsid            0                       # Number of times TLB was flushed by ASID
system.cpu.itb.stage2_mmu.stage2_tlb.flushedEntries            0                       # Number of entries that have been flushed from TLB
system.cpu.itb.stage2_mmu.stage2_tlb.alignFaults            0                       # Number of TLB faults due to alignment restrictions
system.cpu.itb.stage2_mmu.stage2_tlb.prefetchFaults            0                       # Number of TLB faults due to prefetch
system.cpu.itb.stage2_mmu.stage2_tlb.domainFaults            0                       # Number of TLB faults due to domain restrictions
system.cpu.itb.stage2_mmu.stage2_tlb.permsFaults            0                       # Number of TLB faults due to permissions restrictions
system.cpu.itb.stage2_mmu.stage2_tlb.readAccesses            0                       # DTB read accesses
system.cpu.itb.stage2_mmu.stage2_tlb.writeAccesses            0                       # DTB write accesses
system.cpu.itb.stage2_mmu.stage2_tlb.instAccesses            0                       # ITB inst accesses
system.cpu.itb.stage2_mmu.stage2_tlb.hits            0                       # Total TLB (inst and data) hits
system.cpu.itb.stage2_mmu.stage2_tlb.misses            0                       # Total TLB (inst and data) misses
system.cpu.itb.stage2_mmu.stage2_tlb.accesses            0                       # Total TLB (inst and data) accesses
system.cpu.itb.stage2_mmu.stage2_tlb.walker.walks            0                       # Table walker walks requested
system.cpu.itb.stage2_mmu.stage2_tlb.walker.requestOrigin_Requested::Data            0                       # Table walker requests started/completed, data/inst
system.cpu.itb.stage2_mmu.stage2_tlb.walker.requestOrigin_Requested::Inst            0                       # Table walker requests started/completed, data/inst
system.cpu.itb.stage2_mmu.stage2_tlb.walker.requestOrigin_Requested::total            0                       # Table walker requests started/completed, data/inst
system.cpu.itb.stage2_mmu.stage2_tlb.walker.requestOrigin_Completed::Data            0                       # Table walker requests started/completed, data/inst
system.cpu.itb.stage2_mmu.stage2_tlb.walker.requestOrigin_Completed::Inst            0                       # Table walker requests started/completed, data/inst
system.cpu.itb.stage2_mmu.stage2_tlb.walker.requestOrigin_Completed::total            0                       # Table walker requests started/completed, data/inst
system.cpu.itb.stage2_mmu.stage2_tlb.walker.requestOrigin::total            0                       # Table walker requests started/completed, data/inst
system.cpu.itb.stage2_mmu.stage2_tlb.walker.power_state.pwrStateResidencyTicks::UNDEFINED  58877332000                       # Cumulative time (in ticks) in various power states

---------- End Simulation Statistics   ----------
